<?xml version="1.0" encoding="UTF-8"?>

<!-- generated on Mon Jul 8 10:45:41 2013 by SUMO netconvert Version 0.17.1 
	<?xml version="1.0" encoding="UTF-8"?> <configuration xmlns:xsi="http://www.w3.org/2001/XMLSchema-instance" 
	xsi:noNamespaceSchemaLocation="http://sumo.sf.net/xsd/netconvertConfiguration.xsd"> 
	<input> <osm-files value="Berkeley0x0.osm.xml,Berkeley0x1.osm.xml,Berkeley1x0.osm.xml,Berkeley1x1.osm.xml"/> 
	</input> <output> <output-file value="Berkeley.net.xml"/> </output> <projection> 
	<proj.utm value="true"/> </projection> <tls_building> <tls.join value="true"/> 
	</tls_building> <edge_removal> <remove-edges.by-vclass value="rail_slow,rail_fast,bicycle,pedestrian"/> 
	</edge_removal> <processing> <ignore-errors value="true"/> <no-internal-links 
	value="true"/> <roundabouts.guess value="true"/> <junctions.join value="true"/> 
	</processing> <report> <verbose value="true"/> </report> </configuration> -->

<net version="0.13" xmlns:xsi="http://www.w3.org/2001/XMLSchema-instance"
	xsi:noNamespaceSchemaLocation="http://sumo.sf.net/xsd/net_file.xsd">

	<location netOffset="-560297.64,-4187187.16" convBoundary="0.00,0.00,5071.43,7662.20"
		origBoundary="-122.347604,37.827649,-122.256964,37.931846"
		projParameter="+proj=utm +zone=10 +ellps=WGS84 +datum=WGS84 +units=m +no_defs" />

	<edge id="-10281579#1" from="cluster_53064847_86333115" to="cluster_310473226_53064846"
		priority="5" type="highway.unclassified" shape="553.58,5318.65 442.68,5289.62">
		<lane id="-10281579#1_0" index="0" speed="22.22" length="115.63"
			shape="558.63,5321.68 446.77,5292.40" />
	</edge>
	<edge id="-10281579#3" from="52982361" to="cluster_53064847_86333115"
		priority="5" type="highway.unclassified" shape="586.92,5327.38 564.21,5321.43">
		<lane id="-10281579#3_0" index="0" speed="22.22" length="13.78"
			shape="583.64,5328.23 570.32,5324.74" />
	</edge>
	<edge id="-10281580" from="53060497" to="53060496" priority="4"
		type="highway.residential">
		<lane id="-10281580_0" index="0" speed="13.89" length="69.83"
			shape="921.29,5523.08 853.82,5505.07" />
	</edge>
	<edge id="-10281582#0" from="53114425" to="53083136" priority="4"
		type="highway.residential">
		<lane id="-10281582#0_0" index="0" speed="13.89" length="67.49"
			shape="895.73,5620.68 830.32,5604.05" />
	</edge>
	<edge id="-10281582#1" from="53077782" to="53114425" priority="4"
		type="highway.residential">
		<lane id="-10281582#1_0" index="0" speed="13.89" length="84.56"
			shape="987.61,5644.63 905.79,5623.28" />
	</edge>
	<edge id="-10281583" from="53112051" to="53125299" priority="5"
		type="highway.unclassified">
		<lane id="-10281583_0" index="0" speed="22.22" length="72.92"
			shape="699.28,5569.15 628.82,5550.38" />
	</edge>
	<edge id="-10281606" from="86276686" to="86277378" priority="5"
		type="highway.unclassified"
		shape="553.61,6234.79 545.05,6239.30 542.58,6240.75 541.09,6242.70 540.19,6244.36 538.69,6247.47 538.28,6250.31 537.86,6253.25 538.33,6256.09 539.59,6259.04 546.88,6271.84 552.90,6281.38 561.38,6292.02 567.63,6297.54 576.93,6302.80 588.40,6308.67 592.61,6311.44 595.89,6314.12 598.07,6323.90 590.53,6357.53">
		<lane id="-10281606_0" index="0" speed="22.22" length="151.41"
			shape="550.18,6238.47 545.82,6240.76 543.69,6242.01 542.40,6243.70 541.65,6245.14 540.29,6247.96 539.91,6250.55 539.53,6253.23 539.93,6255.63 541.11,6258.39 548.31,6271.02 554.29,6280.50 562.67,6290.99 568.59,6296.19 577.74,6301.37 589.15,6307.20 593.52,6310.06 597.37,6313.20 599.76,6323.90 592.14,6357.89" />
	</edge>
	<edge id="-10281610" from="86276686" to="86277542" priority="6"
		type="highway.tertiary" shape="553.61,6234.79 562.09,6250.93 573.25,6267.25 587.10,6282.20">
		<lane id="-10281610_0" index="0" speed="15.65" length="53.19"
			shape="557.28,6238.23 563.55,6250.17 574.61,6266.32 588.31,6281.08" />
	</edge>
	<edge id="-10284131#0" from="53107627" to="86320157" priority="4"
		type="highway.residential">
		<lane id="-10284131#0_0" index="0" speed="13.89" length="69.09"
			shape="1032.27,5099.77 965.61,5081.61" />
	</edge>
	<edge id="-10284131#1" from="53077784" to="53107627" priority="4"
		type="highway.residential">
		<lane id="-10284131#1_0" index="0" speed="13.89" length="84.60"
			shape="1123.49,5123.15 1041.53,5102.21" />
	</edge>
	<edge id="-10284131#10" from="cluster_243673142_53107633" to="1979020541"
		priority="4" type="highway.residential" shape="1709.11,5275.31 1660.92,5262.84">
		<lane id="-10284131#10_0" index="0" speed="13.89" length="40.00"
			shape="1704.11,5275.72 1665.38,5265.70" />
	</edge>
	<edge id="-10284131#12" from="53107634" to="cluster_243673142_53107633"
		priority="4" type="highway.residential" shape="1797.46,5297.75 1720.22,5278.60">
		<lane id="-10284131#12_0" index="0" speed="13.89" length="69.95"
			shape="1792.38,5298.19 1724.48,5281.36" />
	</edge>
	<edge id="-10284131#13" from="53107642" to="53107634" priority="4"
		type="highway.residential">
		<lane id="-10284131#13_0" index="0" speed="13.89" length="64.66"
			shape="1864.21,5316.82 1801.63,5300.54" />
	</edge>
	<edge id="-10284131#14" from="240448983" to="53107642" priority="4"
		type="highway.residential">
		<lane id="-10284131#14_0" index="0" speed="13.89" length="64.64"
			shape="1935.36,5337.85 1873.41,5319.39" />
	</edge>
	<edge id="-10284131#2" from="1979167533" to="53077784" priority="4"
		type="highway.residential">
		<lane id="-10284131#2_0" index="0" speed="13.89" length="41.41"
			shape="1172.76,5136.05 1132.71,5125.53" />
	</edge>
	<edge id="-10284131#3" from="53029723" to="1979167533" priority="4"
		type="highway.residential">
		<lane id="-10284131#3_0" index="0" speed="13.89" length="44.15"
			shape="1224.59,5149.96 1181.95,5138.49" />
	</edge>
	<edge id="-10284131#4" from="53107630" to="53029723" priority="4"
		type="highway.residential">
		<lane id="-10284131#4_0" index="0" speed="13.89" length="84.80"
			shape="1316.10,5173.05 1233.86,5152.37" />
	</edge>
	<edge id="-10284131#5" from="1979020554" to="53107630" priority="4"
		type="highway.residential">
		<lane id="-10284131#5_0" index="0" speed="13.89" length="39.79"
			shape="1363.76,5185.70 1325.32,5175.44" />
	</edge>
	<edge id="-10284131#6" from="53098213" to="1979020554" priority="4"
		type="highway.residential">
		<lane id="-10284131#6_0" index="0" speed="13.89" length="41.84"
			shape="1413.37,5198.94 1372.94,5188.15" />
	</edge>
	<edge id="-10284131#7" from="53055558" to="53098213" priority="4"
		type="highway.residential">
		<lane id="-10284131#7_0" index="0" speed="13.89" length="90.85"
			shape="1510.39,5224.62 1422.56,5201.39" />
	</edge>
	<edge id="-10284131#8" from="53030346" to="53055558" priority="4"
		type="highway.residential">
		<lane id="-10284131#8_0" index="0" speed="13.89" length="91.85"
			shape="1608.29,5250.90 1519.58,5227.07" />
	</edge>
	<edge id="-10284131#9" from="1979020541" to="53030346" priority="4"
		type="highway.residential">
		<lane id="-10284131#9_0" index="0" speed="13.89" length="39.65"
			shape="1655.91,5263.25 1617.52,5253.33" />
	</edge>
	<edge id="-10284134" from="53060264" to="1998332273" priority="4"
		type="highway.residential">
		<lane id="-10284134_0" index="0" speed="13.89" length="80.12"
			shape="1066.52,4970.18 988.75,4950.90" />
	</edge>
	<edge id="-10284138#0" from="53024978" to="86320161" priority="4"
		type="highway.residential"
		shape="2035.99,6105.66 1951.06,6420.70 1889.89,6657.71 1885.60,6681.56 1880.68,6715.46 1878.94,6727.40">
		<lane id="-10284138#0_0" index="0" speed="13.89" length="636.54"
			shape="2036.31,6110.80 1952.66,6421.13 1891.49,6658.12 1887.22,6681.85 1882.31,6715.70 1880.58,6727.64" />
	</edge>
	<edge id="-10284138#1" from="263187479" to="53024978" priority="4"
		type="highway.residential" shape="2096.29,5935.05 2064.08,6023.56 2035.99,6105.66">
		<lane id="-10284138#1_0" index="0" speed="13.89" length="174.64"
			shape="2097.35,5936.98 2065.63,6024.13 2039.12,6101.61" />
	</edge>
	<edge id="-10284138#2" from="53024982" to="263187479" priority="4"
		type="highway.residential">
		<lane id="-10284138#2_0" index="0" speed="13.89" length="22.62"
			shape="2108.83,5908.23 2100.41,5929.22" />
	</edge>
	<edge id="-10285117#0" from="cluster_53091888_86333227" to="86333386"
		priority="4" type="highway.residential" shape="777.45,4541.97 763.77,4535.57">
		<lane id="-10285117#0_0" index="0" speed="13.89" length="19.56"
			shape="780.91,4545.41 763.19,4537.12" />
	</edge>
	<edge id="-10906601" from="2002199678" to="1997913869" priority="4"
		type="highway.residential" shape="1245.00,5851.86 1242.34,5861.55 1230.95,5903.06">
		<lane id="-10906601_0" index="0" speed="13.89" length="48.86"
			shape="1246.59,5852.30 1243.93,5861.99 1233.66,5899.41" />
	</edge>
	<edge id="-10906602#0" from="803046455"
		to="cluster_1790732503_304710548_53057656" priority="4"
		type="highway.residential" shape="1057.76,5809.09 1041.25,5872.74 1038.02,5885.05">
		<lane id="-10906602#0_0" index="0" speed="13.89" length="73.67"
			shape="1059.36,5809.51 1042.85,5873.15 1040.84,5880.82" />
	</edge>
	<edge id="-10906602#1" from="53029719" to="803046455" priority="4"
		type="highway.residential">
		<lane id="-10906602#1_0" index="0" speed="13.89" length="137.57"
			shape="1094.44,5676.50 1059.36,5809.52" />
	</edge>
	<edge id="-10906602#2" from="53029721" to="53029719" priority="4"
		type="highway.residential" shape="1145.36,5474.31 1094.76,5663.30 1094.06,5671.50">
		<lane id="-10906602#2_0" index="0" speed="13.89" length="190.14"
			shape="1144.87,5482.53 1096.39,5663.58 1096.16,5666.28" />
	</edge>
	<edge id="-10906603#0" from="304710542" to="304710543" priority="4"
		type="highway.residential">
		<lane id="-10906603#0_0" index="0" speed="13.89" length="44.02"
			shape="839.20,6071.27 796.78,6059.52" />
	</edge>
	<edge id="-10906603#1" from="53040175" to="304710542" priority="4"
		type="highway.residential">
		<lane id="-10906603#1_0" index="0" speed="13.89" length="65.55"
			shape="911.54,6091.29 848.36,6073.81" />
	</edge>
	<edge id="-10906603#2" from="97229316" to="53040175" priority="4"
		type="highway.residential">
		<lane id="-10906603#2_0" index="0" speed="13.89" length="70.55"
			shape="988.68,6112.65 920.70,6093.83" />
	</edge>
	<edge id="-10906603#3" from="799928836" to="97229316" priority="4"
		type="highway.residential">
		<lane id="-10906603#3_0" index="0" speed="13.89" length="54.85"
			shape="1050.70,6129.83 997.84,6115.19" />
	</edge>
	<edge id="-10906603#4" from="53005267" to="799928836" priority="4"
		type="highway.residential">
		<lane id="-10906603#4_0" index="0" speed="13.89" length="32.42"
			shape="1091.10,6141.02 1059.86,6132.36" />
	</edge>
	<edge id="-10906603#5" from="799928834" to="53005267" priority="4"
		type="highway.residential">
		<lane id="-10906603#5_0" index="0" speed="13.89" length="26.53"
			shape="1125.82,6150.63 1100.26,6143.55" />
	</edge>
	<edge id="-10906603#6" from="799928426" to="799928834" priority="4"
		type="highway.residential">
		<lane id="-10906603#6_0" index="0" speed="13.89" length="28.24"
			shape="1162.20,6160.71 1134.98,6153.17" />
	</edge>
	<edge id="-10906603#7" from="799928832" to="799928426" priority="4"
		type="highway.residential">
		<lane id="-10906603#7_0" index="0" speed="13.89" length="28.63"
			shape="1189.70,6168.61 1162.19,6160.71" />
	</edge>
	<edge id="-10906603#8" from="53005268" to="799928832" priority="4"
		type="highway.residential">
		<lane id="-10906603#8_0" index="0" speed="13.89" length="29.03"
			shape="1226.69,6179.45 1198.83,6171.27" />
	</edge>
	<edge id="-10906608" from="97229356" to="97229351" priority="2"
		type="highway.service">
		<lane id="-10906608_0" index="0" allow="delivery" speed="5.56"
			length="96.82" shape="1017.88,6039.61 1111.19,6065.42" />
	</edge>
	<edge id="-10908076" from="53055374" to="cluster_97239375_97239410"
		priority="2" type="highway.service"
		shape="1378.32,2352.49 1385.63,2350.06 1394.77,2348.99 1572.04,2386.93 1592.80,2392.82">
		<lane id="-10908076_0" index="0" allow="delivery" speed="5.56"
			length="225.92"
			shape="1378.05,2350.84 1385.27,2348.44 1394.85,2347.32 1572.38,2385.32 1598.47,2392.71" />
	</edge>
	<edge id="-10908080#0" from="97239741" to="53055370" priority="2"
		type="highway.service" shape="1301.04,3428.01 1294.46,3434.20 1228.97,3617.84">
		<lane id="-10908080#0_0" index="0" allow="delivery" speed="5.56"
			length="196.33" shape="1300.85,3430.45 1295.88,3435.13 1232.22,3613.62" />
	</edge>
	<edge id="-10908080#1" from="97239747" to="97239741" priority="2"
		type="highway.service">
		<lane id="-10908080#1_0" index="0" allow="delivery" speed="5.56"
			length="47.07" shape="1347.85,3442.17 1302.36,3430.07" />
	</edge>
	<edge id="-10908237#0" from="53055367" to="74261353" priority="4"
		type="highway.residential" shape="1086.74,3959.62 1074.09,3973.28 1069.44,3977.26">
		<lane id="-10908237#0_0" index="0" speed="13.89" length="21.47"
			shape="1085.60,3963.28 1075.30,3974.41 1070.51,3978.51" />
	</edge>
	<edge id="-10908237#1" from="306073377" to="53055367" priority="4"
		type="highway.residential">
		<lane id="-10908237#1_0" index="0" speed="13.89" length="191.03"
			shape="1165.11,3779.65 1090.31,3955.43" />
	</edge>
	<edge id="-10908237#2" from="53055370" to="306073377" priority="4"
		type="highway.residential">
		<lane id="-10908237#2_0" index="0" speed="13.89" length="169.59"
			shape="1228.86,3622.48 1165.11,3779.63" />
	</edge>
	<edge id="-11162457#0" from="670133157" to="53104530" priority="6"
		type="highway.tertiary" shape="1966.91,2186.24 1970.87,2190.42 1975.65,2193.39 1987.68,2199.75">
		<lane id="-11162457#0_0" index="0" speed="22.22" length="20.83"
			shape="1970.34,2187.46 1971.92,2189.13 1976.52,2191.98 1988.12,2198.11" />
	</edge>
	<edge id="-11162457#1" from="53109988" to="670133157" priority="6"
		type="highway.tertiary"
		shape="1977.28,2093.80 1960.67,2150.03 1959.16,2158.04 1959.02,2164.44 1959.42,2170.67 1961.37,2177.45 1963.51,2181.89 1966.91,2186.24">
		<lane id="-11162457#1_0" index="0" speed="22.22" length="83.60"
			shape="1977.49,2098.91 1962.25,2150.50 1960.78,2158.35 1960.67,2164.48 1961.06,2170.39 1962.95,2177.00 1964.22,2179.59" />
	</edge>
	<edge id="-11162457#2" from="53133743" to="53109988" priority="6"
		type="highway.tertiary">
		<lane id="-11162457#2_0" index="0" speed="22.22" length="108.33"
			shape="2008.01,1984.96 1980.09,2089.63" />
	</edge>
	<edge id="-11162457#3" from="53043850" to="53133743" priority="6"
		type="highway.tertiary">
		<lane id="-11162457#3_0" index="0" speed="22.22" length="110.19"
			shape="2037.60,1868.89 2010.43,1975.68" />
	</edge>
	<edge id="-112759821#0" from="1280994843" to="53133746" priority="2"
		type="highway.service" shape="1957.10,1710.06 1950.00,1731.55 2061.51,1773.64">
		<lane id="-112759821#0_0" index="0" allow="delivery" speed="5.56"
			length="130.42" shape="1957.68,1713.54 1952.06,1730.57 2057.31,1770.29" />
	</edge>
	<edge id="-112759821#1" from="53109395" to="1280994843" priority="2"
		type="highway.service">
		<lane id="-112759821#1_0" index="0" allow="delivery" speed="5.56"
			length="97.29" shape="1863.64,1673.29 1954.75,1707.42" />
	</edge>
	<edge id="-112759822#0" from="1280994847" to="1280994853"
		priority="2" type="highway.service">
		<lane id="-112759822#0_0" index="0" allow="delivery" speed="5.56"
			length="102.95" shape="1971.58,1661.76 1876.84,1621.47" />
	</edge>
	<edge id="-112759822#1" from="1280994837" to="1280994847"
		priority="2" type="highway.service">
		<lane id="-112759822#1_0" index="0" allow="delivery" speed="5.56"
			length="47.97" shape="1995.85,1614.52 1978.05,1659.07" />
	</edge>
	<edge id="-113629978#0" from="53047320" to="53070449" priority="4"
		type="highway.residential"
		shape="2555.03,5440.82 2477.91,5396.79 2461.39,5387.82 2442.43,5379.14 2424.59,5372.62 2384.71,5359.96">
		<lane id="-113629978#0_0" index="0" speed="13.89" length="177.60"
			shape="2548.51,5438.99 2477.10,5398.22 2460.60,5389.27 2441.74,5380.64 2424.02,5374.17 2388.76,5362.97" />
	</edge>
	<edge id="-113629978#1" from="53050595" to="53047320" priority="4"
		type="highway.residential">
		<lane id="-113629978#1_0" index="0" speed="13.89" length="202.38"
			shape="2736.42,5544.43 2559.90,5445.44" />
	</edge>
	<edge id="-113629978#2" from="261735861" to="53050595" priority="4"
		type="highway.residential" shape="2880.19,5627.02 2872.97,5626.48 2809.33,5586.53 2746.03,5547.93">
		<lane id="-113629978#2_0" index="0" speed="13.89" length="146.91"
			shape="2880.07,5628.66 2872.44,5628.10 2808.46,5587.92 2754.06,5554.75" />
	</edge>
	<edge id="-117329728" from="1321393788" to="1321393785" priority="2"
		type="highway.service">
		<lane id="-117329728_0" index="0" allow="delivery" speed="5.56"
			length="30.03" shape="1263.72,4542.81 1256.14,4571.88" />
	</edge>
	<edge id="-117329729#0" from="1321393778" to="2065927959"
		priority="2" type="highway.service">
		<lane id="-117329729#0_0" index="0" allow="delivery" speed="5.56"
			length="3.78" shape="1262.97,4577.56 1266.59,4578.64" />
	</edge>
	<edge id="-117329729#1" from="1321393785" to="1321393778"
		priority="2" type="highway.service">
		<lane id="-117329729#1_0" index="0" allow="delivery" speed="5.56"
			length="0.20" shape="1257.16,4575.75 1257.35,4575.82" />
	</edge>
	<edge id="-117329729#2" from="1321393783" to="1321393785"
		priority="2" type="highway.service">
		<lane id="-117329729#2_0" index="0" allow="delivery" speed="5.56"
			length="6.44" shape="1242.97,4571.18 1249.10,4573.15" />
	</edge>
	<edge id="-117329729#3" from="cluster_1321393770_1321393772" to="1321393783"
		priority="2" type="highway.service"
		shape="1192.37,4560.80 1195.44,4559.18 1233.42,4569.82 1238.07,4571.33">
		<lane id="-117329729#3_0" index="0" allow="delivery" speed="5.56"
			length="52.53" shape="1184.31,4563.19 1195.26,4557.42 1233.92,4568.25" />
	</edge>
	<edge id="-117329735" from="1321393777" to="1321393783" priority="2"
		type="highway.service">
		<lane id="-117329735_0" index="0" allow="delivery" speed="5.56"
			length="30.18" shape="1248.98,4537.95 1240.97,4567.05" />
	</edge>
	<edge id="-135717102" from="cluster_1490086202_240448903" to="1490086197"
		priority="2" type="highway.service" shape="1418.18,4185.40 1422.62,4168.52">
		<lane id="-135717102_0" index="0" allow="delivery" speed="5.56"
			length="14.31" shape="1417.39,4181.94 1421.02,4168.10" />
	</edge>
	<edge id="-135717103" from="1490086207" to="1490086213" priority="2"
		type="highway.service" shape="1488.01,4166.91 1441.83,4154.81 1440.19,4160.41">
		<lane id="-135717103_0" index="0" allow="delivery" speed="5.56"
			length="45.62" shape="1483.00,4167.31 1442.96,4156.81 1441.78,4160.87" />
	</edge>
	<edge id="-138274357#1" from="1515953911" to="cluster_1515953860_1515953887"
		priority="2" type="highway.service" shape="1670.91,1924.76 1671.83,1813.57">
		<lane id="-138274357#1_0" index="0" allow="delivery" speed="5.56"
			length="101.62" shape="1669.30,1919.95 1670.14,1818.34" />
	</edge>
	<edge id="-138274360#0" from="1515953812" to="1515953884"
		priority="2" type="highway.service" shape="1539.92,1921.96 1566.82,1957.10 1566.18,1922.53">
		<lane id="-138274360#0_0" index="0" allow="delivery" speed="5.56"
			length="55.63" shape="1546.26,1927.52 1565.08,1952.10 1564.62,1927.44" />
	</edge>
	<edge id="-138274360#1" from="cluster_1515953860_1515953887" to="1515953812"
		priority="2" type="highway.service"
		shape="1671.83,1813.57 1528.35,1813.89 1526.27,1901.77 1539.92,1921.96">
		<lane id="-138274360#1_0" index="0" allow="delivery" speed="5.56"
			length="243.53"
			shape="1667.05,1815.23 1529.96,1815.54 1527.93,1901.28 1539.51,1918.40" />
	</edge>
	<edge id="-138274368#0" from="1515953884" to="1515953812"
		priority="2" type="highway.service">
		<lane id="-138274368#0_0" index="0" allow="delivery" speed="5.56"
			length="13.37" shape="1561.52,1924.08 1548.15,1923.79" />
	</edge>
	<edge id="-138274368#1" from="1515953911" to="1515953884"
		priority="2" type="highway.service">
		<lane id="-138274368#1_0" index="0" allow="delivery" speed="5.56"
			length="95.08" shape="1666.08,1926.31 1571.02,1924.28" />
	</edge>
	<edge id="-138274368#2" from="cluster_1515953773_53145361" to="1515953911"
		priority="2" type="highway.service" shape="1740.48,1926.25 1670.91,1924.76">
		<lane id="-138274368#2_0" index="0" allow="delivery" speed="5.56"
			length="59.43" shape="1734.99,1927.78 1675.58,1926.51" />
	</edge>
	<edge id="-138533972" from="1519114321" to="1519114391" priority="2"
		type="highway.service" shape="1884.21,4376.93 1877.19,4400.14 1839.01,4390.80">
		<lane id="-138533972_0" index="0" allow="delivery" speed="5.56"
			length="58.85" shape="1884.92,4380.29 1878.32,4402.11 1843.30,4393.55" />
	</edge>
	<edge id="-148166293" from="1612672414" to="1612672391" priority="2"
		type="highway.service" shape="2552.94,2184.52 2556.26,2185.21 2574.21,2189.67 2569.61,2208.82">
		<lane id="-148166293_0" index="0" allow="delivery" speed="5.56"
			length="39.09"
			shape="2555.80,2183.43 2556.59,2183.60 2576.20,2188.46 2571.97,2206.04" />
	</edge>
	<edge id="-148166301" from="1612672431" to="1612672313" priority="2"
		type="highway.service">
		<lane id="-148166301_0" index="0" allow="delivery" speed="5.56"
			length="26.66" shape="2528.65,2143.66 2503.26,2135.55" />
	</edge>
	<edge id="-148166305#0" from="1612672313" to="1612672397"
		priority="2" type="highway.service">
		<lane id="-148166305#0_0" index="0" allow="delivery" speed="5.56"
			length="13.15" shape="2498.50,2127.66 2501.66,2114.89" />
	</edge>
	<edge id="-148166305#1" from="1612672416" to="1612672313"
		priority="2" type="highway.service">
		<lane id="-148166305#1_0" index="0" allow="delivery" speed="5.56"
			length="32.00" shape="2488.61,2167.99 2496.23,2136.91" />
	</edge>
	<edge id="-148166305#2" from="cluster_1612672293_1612672332" to="1612672416"
		priority="2" type="highway.service"
		shape="2486.41,2212.91 2497.73,2177.80 2488.42,2175.73 2489.86,2169.84">
		<lane id="-148166305#2_0" index="0" allow="delivery" speed="5.56"
			length="43.10"
			shape="2487.18,2205.12 2495.60,2179.02 2486.41,2176.97 2487.90,2170.90" />
	</edge>
	<edge id="-148285258" from="1613874217" to="cluster_1613874190_1613874225"
		priority="2" type="highway.service" shape="2446.58,2525.90 2473.01,2534.77 2468.70,2551.24">
		<lane id="-148285258_0" index="0" allow="delivery" speed="5.56"
			length="38.28" shape="2451.80,2525.91 2475.00,2533.70 2471.50,2547.06" />
	</edge>
	<edge id="-148285259#1" from="1613874246" to="cluster_1613874190_1613874225"
		priority="2" type="highway.service" shape="2441.66,2544.11 2468.70,2551.24">
		<lane id="-148285259#1_0" index="0" allow="delivery" speed="5.56"
			length="18.43" shape="2446.70,2543.73 2464.52,2548.43" />
	</edge>
	<edge id="-148288909#3" from="687179405"
		to="cluster_1613926804_1613926805_1613926832_1613926882" priority="2"
		type="highway.service" shape="2251.42,2603.06 2295.87,2614.12 2310.46,2561.78">
		<lane id="-148288909#3_0" index="0" allow="delivery" speed="5.56"
			length="87.29" shape="2256.52,2602.63 2294.71,2612.13 2307.58,2565.95" />
	</edge>
	<edge id="-148288911" from="cluster_1613926804_1613926805_1613926832_1613926882"
		to="1800890465" priority="2" type="highway.service"
		shape="2310.46,2561.78 2253.72,2546.78 2247.52,2545.43">
		<lane id="-148288911_0" index="0" allow="delivery" speed="5.56"
			length="55.35" shape="2305.40,2562.15 2253.30,2548.37 2251.88,2548.07" />
	</edge>
	<edge id="-148288913" from="cluster_1613926804_1613926805_1613926832_1613926882"
		to="1800890463" priority="2" type="highway.service"
		shape="2315.19,2544.78 2258.19,2528.98 2251.81,2527.46">
		<lane id="-148288913_0" index="0" allow="delivery" speed="5.56"
			length="55.90" shape="2309.93,2545.04 2257.75,2530.57 2256.05,2530.17" />
	</edge>
	<edge id="-148288914" from="cluster_1613926804_1613926805_1613926832_1613926882"
		to="1800890461" priority="2" type="highway.service"
		shape="2319.87,2527.98 2261.69,2510.65 2256.68,2509.18">
		<lane id="-148288914_0" index="0" allow="delivery" speed="5.56"
			length="55.91" shape="2314.41,2528.07 2261.22,2512.23 2260.83,2512.11" />
	</edge>
	<edge id="-151894654#1" from="1730965990" to="cluster_1730965986_1730965988"
		priority="2" type="highway.service" shape="2646.59,4841.24 2632.33,4839.57">
		<lane id="-151894654#1_0" index="0" allow="delivery" speed="5.56"
			length="16.07" shape="2644.84,4842.70 2628.88,4840.83" />
	</edge>
	<edge id="-151894654#2" from="1730965992" to="1730965990"
		priority="2" type="highway.service">
		<lane id="-151894654#2_0" index="0" allow="delivery" speed="5.56"
			length="5.40" shape="2656.54,4844.08 2651.17,4843.45" />
	</edge>
	<edge id="-151894654#3" from="1730965993" to="1730965992"
		priority="2" type="highway.service">
		<lane id="-151894654#3_0" index="0" allow="delivery" speed="5.56"
			length="8.88" shape="2671.61,4845.85 2662.79,4844.82" />
	</edge>
	<edge id="-151894654#4" from="1647321665" to="1730965993"
		priority="2" type="highway.service">
		<lane id="-151894654#4_0" index="0" allow="delivery" speed="5.56"
			length="5.08" shape="2682.93,4847.19 2677.88,4846.59" />
	</edge>
	<edge id="-151894657#0" from="cluster_1647321657_1647321660_1647321662"
		to="1647321666" priority="2" type="highway.service" shape="2654.76,4781.63 2640.68,4779.35">
		<lane id="-151894657#0_0" index="0" allow="delivery" speed="5.56"
			length="22.82" shape="2664.44,4784.87 2641.92,4781.22" />
	</edge>
	<edge id="-151894661#0" from="1647321665" to="1730965975"
		priority="2" type="highway.service" shape="2687.89,4846.11 2697.17,4773.61 2698.41,4764.66">
		<lane id="-151894661#0_0" index="0" allow="delivery" speed="5.56"
			length="72.58" shape="2686.85,4841.22 2695.53,4773.41 2696.11,4769.24" />
	</edge>
	<edge id="-151894661#1" from="1730966011" to="1647321665"
		priority="2" type="highway.service">
		<lane id="-151894661#1_0" index="0" allow="delivery" speed="5.56"
			length="10.27" shape="2684.25,4860.83 2685.61,4850.65" />
	</edge>
	<edge id="-151894661#2" from="1730966030" to="1730966011"
		priority="2" type="highway.service">
		<lane id="-151894661#2_0" index="0" allow="delivery" speed="5.56"
			length="42.28" shape="2678.60,4902.73 2684.25,4860.83" />
	</edge>
	<edge id="-151894661#3" from="1730966042" to="1730966030"
		priority="2" type="highway.service">
		<lane id="-151894661#3_0" index="0" allow="delivery" speed="5.56"
			length="9.41" shape="2677.35,4912.06 2678.60,4902.73" />
	</edge>
	<edge id="-151894661#4" from="1647321668" to="1730966042"
		priority="2" type="highway.service">
		<lane id="-151894661#4_0" index="0" allow="delivery" speed="5.56"
			length="36.61" shape="2671.14,4958.19 2676.03,4921.91" />
	</edge>
	<edge id="-151894666#0" from="1730966039" to="1647321669"
		priority="2" type="highway.service">
		<lane id="-151894666#0_0" index="0" allow="delivery" speed="5.56"
			length="10.48" shape="2634.50,4911.41 2624.10,4910.13" />
	</edge>
	<edge id="-151894666#1" from="1647321670" to="1730966039"
		priority="2" type="highway.service">
		<lane id="-151894666#1_0" index="0" allow="delivery" speed="5.56"
			length="6.74" shape="2647.31,4913.30 2640.65,4912.30" />
	</edge>
	<edge id="-151894666#2" from="1647321648" to="1647321670"
		priority="2" type="highway.service">
		<lane id="-151894666#2_0" index="0" allow="delivery" speed="5.56"
			length="5.24" shape="2658.73,4914.89 2653.53,4914.19" />
	</edge>
	<edge id="-151894666#3" from="1730966042" to="1647321648"
		priority="2" type="highway.service">
		<lane id="-151894666#3_0" index="0" allow="delivery" speed="5.56"
			length="4.89" shape="2672.98,4917.76 2668.22,4916.64" />
	</edge>
	<edge id="-151894875#0" from="cluster_1647326782_1647326785_1647326795_1647326797"
		to="1647326779" priority="2" type="highway.service" shape="2740.04,4838.28 2737.33,4853.16">
		<lane id="-151894875#0_0" index="0" allow="delivery" speed="5.56"
			length="24.70" shape="2743.62,4827.86 2739.19,4852.16" />
	</edge>
	<edge id="-151894876#0" from="1647326788" to="1647326766"
		priority="2" type="highway.service">
		<lane id="-151894876#0_0" index="0" allow="delivery" speed="5.56"
			length="6.95" shape="2709.98,4802.28 2711.01,4795.41" />
	</edge>
	<edge id="-151894876#1" from="1730965983" to="1647326788"
		priority="2" type="highway.service">
		<lane id="-151894876#1_0" index="0" allow="delivery" speed="5.56"
			length="8.59" shape="2707.75,4816.89 2709.05,4808.39" />
	</edge>
	<edge id="-151894876#2" from="1730965985" to="1730965983"
		priority="2" type="highway.service">
		<lane id="-151894876#2_0" index="0" allow="delivery" speed="5.56"
			length="6.76" shape="2705.97,4829.80 2706.88,4823.11" />
	</edge>
	<edge id="-151894876#3" from="1647326760" to="1730965985"
		priority="2" type="highway.service">
		<lane id="-151894876#3_0" index="0" allow="delivery" speed="5.56"
			length="7.79" shape="2704.08,4843.67 2705.13,4835.95" />
	</edge>
	<edge id="-151894876#4" from="1647321665" to="1647326760"
		priority="2" type="highway.service">
		<lane id="-151894876#4_0" index="0" allow="delivery" speed="5.56"
			length="7.80" shape="2692.87,4845.17 2700.58,4846.30" />
	</edge>
	<edge id="-154439299" from="1669800005" to="1669800020" priority="2"
		type="highway.service">
		<lane id="-154439299_0" index="0" allow="delivery" speed="5.56"
			length="35.19" shape="2047.41,4365.41 2040.43,4399.91" />
	</edge>
	<edge id="-154439300" from="1669799992" to="cluster_1669800044_1669807798"
		priority="2" type="highway.service" shape="2017.40,4355.22 2008.30,4397.72">
		<lane id="-154439300_0" index="0" allow="delivery" speed="5.56"
			length="33.74" shape="2017.99,4360.33 2010.93,4393.32" />
	</edge>
	<edge id="-154439303#0" from="cluster_1669800044_1669807798" to="1669800003"
		priority="2" type="highway.service" shape="2008.30,4397.72 1955.80,4384.73">
		<lane id="-154439303#0_0" index="0" allow="delivery" speed="5.56"
			length="44.45" shape="2003.19,4398.16 1960.04,4387.48" />
	</edge>
	<edge id="-154439303#2" from="1669807799" to="cluster_1669800044_1669807798"