<?xml version="1.0" encoding="UTF-8"?>

<!-- generated on Mon Jul  8 15:43:51 2013 by SUMO duarouter Version 0.17.1
<?xml version="1.0" encoding="UTF-8"?>

<configuration xmlns:xsi="http://www.w3.org/2001/XMLSchema-instance" xsi:noNamespaceSchemaLocation="http://sumo.sf.net/xsd/duarouterConfiguration.xsd">

    <input>
        <net-file value="Berkeley.net.xml"/>
        <flow-files value="flows.xml"/>
    </input>

    <output>
        <output-file value="Berkeley.rou.xml"/>
    </output>

</configuration>
-->

<routes xmlns:xsi="http://www.w3.org/2001/XMLSchema-instance" xsi:noNamespaceSchemaLocation="http://sumo.sf.net/xsd/routes_file.xsd">
    <vehicle id="DwightNorth0.0" depart="0.00" departLane="0">
        <route edges="5165991#0 5165991#1 123741236#0 123741236#1 203317482#0 203317482#1 203395220 10281585 10281586#0"/>
    </vehicle>
    <vehicle id="DwightNorth1.0" depart="0.00" departLane="1">
        <route edges="5165991#0 5165991#1 123741236#0 123741236#1 203317482#0 203317482#1 203395220 10281585 10281586#0"/>
    </vehicle>
    <vehicle id="DwightNorth2.0" depart="0.00" departLane="2">
        <route edges="5165991#0 5165991#1 123741236#0 123741236#1 203317482#0 203317482#1 203395220 10281585 10281586#0"/>
    </vehicle>
    <vehicle id="DwightNorth3.0" depart="0.00" departLane="3">
        <route edges="5165991#0 5165991#1 123741236#0 123741236#1 203317482#0 203317482#1 203395220 10281585 10281586#0"/>
    </vehicle>
    <vehicle id="DwightNorth4.0" depart="0.00" departLane="4">
        <route edges="5165991#0 5165991#1 123741236#0 123741236#1 203317482#0 203317482#1 203395220 10281585 10281586#0"/>
    </vehicle>
    <vehicle id="DwightNorth5.0" depart="0.00" departLane="5">
        <route edges="5165991#0 5165991#1 123741236#0 123741236#1 203317482#0 203317482#1 203395220 10281585 10281586#0"/>
    </vehicle>
    <vehicle id="DwightSouth0.0" depart="0.00" departLane="0">
        <route edges="10281628#1 10281628#2 10281588 10281587 203395221#0 203395221#1 203317481#0 203317481#1 9570479 123741256"/>
    </vehicle>
    <vehicle id="DwightSouth1.0" depart="0.00" departLane="1">
        <route edges="10281628#1 10281628#2 10281588 10281587 203395221#0 203395221#1 203317481#0 203317481#1 9570479 123741256"/>
    </vehicle>
    <vehicle id="DwightSouth2.0" depart="0.00" departLane="2">
        <route edges="10281628#1 10281628#2 10281588 10281587 203395221#0 203395221#1 203317481#0 203317481#1 9570479 123741256"/>
    </vehicle>
    <vehicle id="DwightSouth3.0" depart="0.00" departLane="3">
        <route edges="10281628#1 10281628#2 10281588 10281587 203395221#0 203395221#1 203317481#0 203317481#1 9570479 123741256"/>
    </vehicle>
    <vehicle id="DwightSouth4.0" depart="0.00" departLane="4">
        <route edges="10281628#1 10281628#2 10281588 10281587 203395221#0 203395221#1 203317481#0 203317481#1 9570479 123741256"/>
    </vehicle>
    <vehicle id="DwightNorth0.1" depart="2.78" departLane="0">
        <route edges="5165991#0 5165991#1 123741236#0 123741236#1 203317482#0 203317482#1 203395220 10281585 10281586#0"/>
    </vehicle>
    <vehicle id="DwightNorth1.1" depart="2.78" departLane="1">
        <route edges="5165991#0 5165991#1 123741236#0 123741236#1 203317482#0 203317482#1 203395220 10281585 10281586#0"/>
    </vehicle>
    <vehicle id="DwightNorth2.1" depart="2.78" departLane="2">
        <route edges="5165991#0 5165991#1 123741236#0 123741236#1 203317482#0 203317482#1 203395220 10281585 10281586#0"/>
    </vehicle>
    <vehicle id="DwightNorth3.1" depart="2.78" departLane="3">
        <route edges="5165991#0 5165991#1 123741236#0 123741236#1 203317482#0 203317482#1 203395220 10281585 10281586#0"/>
    </vehicle>
    <vehicle id="DwightNorth4.1" depart="2.78" departLane="4">
        <route edges="5165991#0 5165991#1 123741236#0 123741236#1 203317482#0 203317482#1 203395220 10281585 10281586#0"/>
    </vehicle>
    <vehicle id="DwightNorth5.1" depart="2.78" departLane="5">
        <route edges="5165991#0 5165991#1 123741236#0 123741236#1 203317482#0 203317482#1 203395220 10281585 10281586#0"/>
    </vehicle>
    <vehicle id="DwightSouth0.1" depart="2.78" departLane="0">
        <route edges="10281628#1 10281628#2 10281588 10281587 203395221#0 203395221#1 203317481#0 203317481#1 9570479 123741256"/>
    </vehicle>
    <vehicle id="DwightSouth1.1" depart="2.78" departLane="1">
        <route edges="10281628#1 10281628#2 10281588 10281587 203395221#0 203395221#1 203317481#0 203317481#1 9570479 123741256"/>
    </vehicle>
    <vehicle id="DwightSouth2.1" depart="2.78" departLane="2">
        <route edges="10281628#1 10281628#2 10281588 10281587 203395221#0 203395221#1 203317481#0 203317481#1 9570479 123741256"/>
    </vehicle>
    <vehicle id="DwightSouth3.1" depart="2.78" departLane="3">
        <route edges="10281628#1 10281628#2 10281588 10281587 203395221#0 203395221#1 203317481#0 203317481#1 9570479 123741256"/>
    </vehicle>
    <vehicle id="DwightSouth4.1" depart="2.78" departLane="4">
        <route edges="10281628#1 10281628#2 10281588 10281587 203395221#0 203395221#1 203317481#0 203317481#1 9570479 123741256"/>
    </vehicle>
    <vehicle id="DwightNorth0.2" depart="5.56" departLane="0">
        <route edges="5165991#0 5165991#1 123741236#0 123741236#1 203317482#0 203317482#1 203395220 10281585 10281586#0"/>
    </vehicle>
    <vehicle id="DwightNorth1.2" depart="5.56" departLane="1">
        <route edges="5165991#0 5165991#1 123741236#0 123741236#1 203317482#0 203317482#1 203395220 10281585 10281586#0"/>
    </vehicle>
    <vehicle id="DwightNorth2.2" depart="5.56" departLane="2">
        <route edges="5165991#0 5165991#1 123741236#0 123741236#1 203317482#0 203317482#1 203395220 10281585 10281586#0"/>
    </vehicle>
    <vehicle id="DwightNorth3.2" depart="5.56" departLane="3">
        <route edges="5165991#0 5165991#1 123741236#0 123741236#1 203317482#0 203317482#1 203395220 10281585 10281586#0"/>
    </vehicle>
    <vehicle id="DwightNorth4.2" depart="5.56" departLane="4">
        <route edges="5165991#0 5165991#1 123741236#0 123741236#1 203317482#0 203317482#1 203395220 10281585 10281586#0"/>
    </vehicle>
    <vehicle id="DwightNorth5.2" depart="5.56" departLane="5">
        <route edges="5165991#0 5165991#1 123741236#0 123741236#1 203317482#0 203317482#1 203395220 10281585 10281586#0"/>
    </vehicle>
    <vehicle id="DwightSouth0.2" depart="5.56" departLane="0">
        <route edges="10281628#1 10281628#2 10281588 10281587 203395221#0 203395221#1 203317481#0 203317481#1 9570479 123741256"/>
    </vehicle>
    <vehicle id="DwightSouth1.2" depart="5.56" departLane="1">
        <route edges="10281628#1 10281628#2 10281588 10281587 203395221#0 203395221#1 203317481#0 203317481#1 9570479 123741256"/>
    </vehicle>
    <vehicle id="DwightSouth2.2" depart="5.56" departLane="2">
        <route edges="10281628#1 10281628#2 10281588 10281587 203395221#0 203395221#1 203317481#0 203317481#1 9570479 123741256"/>
    </vehicle>
    <vehicle id="DwightSouth3.2" depart="5.56" departLane="3">
        <route edges="10281628#1 10281628#2 10281588 10281587 203395221#0 203395221#1 203317481#0 203317481#1 9570479 123741256"/>
    </vehicle>
    <vehicle id="DwightSouth4.2" depart="5.56" departLane="4">
        <route edges="10281628#1 10281628#2 10281588 10281587 203395221#0 203395221#1 203317481#0 203317481#1 9570479 123741256"/>
    </vehicle>
    <vehicle id="DwightNorth0.3" depart="8.33" departLane="0">
        <route edges="5165991#0 5165991#1 123741236#0 123741236#1 203317482#0 203317482#1 203395220 10281585 10281586#0"/>
    </vehicle>
    <vehicle id="DwightNorth1.3" depart="8.33" departLane="1">
        <route edges="5165991#0 5165991#1 123741236#0 123741236#1 203317482#0 203317482#1 203395220 10281585 10281586#0"/>
    </vehicle>
    <vehicle id="DwightNorth2.3" depart="8.33" departLane="2">
        <route edges="5165991#0 5165991#1 123741236#0 123741236#1 203317482#0 203317482#1 203395220 10281585 10281586#0"/>
    </vehicle>
    <vehicle id="DwightNorth3.3" depart="8.33" departLane="3">
        <route edges="5165991#0 5165991#1 123741236#0 123741236#1 203317482#0 203317482#1 203395220 10281585 10281586#0"/>
    </vehicle>
    <vehicle id="DwightNorth4.3" depart="8.33" departLane="4">
        <route edges="5165991#0 5165991#1 123741236#0 123741236#1 203317482#0 203317482#1 203395220 10281585 10281586#0"/>
    </vehicle>
    <vehicle id="DwightNorth5.3" depart="8.33" departLane="5">
        <route edges="5165991#0 5165991#1 123741236#0 123741236#1 203317482#0 203317482#1 203395220 10281585 10281586#0"/>
    </vehicle>
    <vehicle id="DwightSouth0.3" depart="8.33" departLane="0">
        <route edges="10281628#1 10281628#2 10281588 10281587 203395221#0 203395221#1 203317481#0 203317481#1 9570479 123741256"/>
    </vehicle>
    <vehicle id="DwightSouth1.3" depart="8.33" departLane="1">
        <route edges="10281628#1 10281628#2 10281588 10281587 203395221#0 203395221#1 203317481#0 203317481#1 9570479 123741256"/>
    </vehicle>
    <vehicle id="DwightSouth2.3" depart="8.33" departLane="2">
        <route edges="10281628#1 10281628#2 10281588 10281587 203395221#0 203395221#1 203317481#0 203317481#1 9570479 123741256"/>
    </vehicle>
    <vehicle id="DwightSouth3.3" depart="8.33" departLane="3">
        <route edges="10281628#1 10281628#2 10281588 10281587 203395221#0 203395221#1 203317481#0 203317481#1 9570479 123741256"/>
    </vehicle>
    <vehicle id="DwightSouth4.3" depart="8.33" departLane="4">
        <route edges="10281628#1 10281628#2 10281588 10281587 203395221#0 203395221#1 203317481#0 203317481#1 9570479 123741256"/>
    </vehicle>
    <vehicle id="DwightNorth0.4" depart="11.11" departLane="0">
        <route edges="5165991#0 5165991#1 123741236#0 123741236#1 203317482#0 203317482#1 203395220 10281585 10281586#0"/>
    </vehicle>
    <vehicle id="DwightNorth1.4" depart="11.11" departLane="1">
        <route edges="5165991#0 5165991#1 123741236#0 123741236#1 203317482#0 203317482#1 203395220 10281585 10281586#0"/>
    </vehicle>
    <vehicle id="DwightNorth2.4" depart="11.11" departLane="2">
        <route edges="5165991#0 5165991#1 123741236#0 123741236#1 203317482#0 203317482#1 203395220 10281585 10281586#0"/>
    </vehicle>
    <vehicle id="DwightNorth3.4" depart="11.11" departLane="3">
        <route edges="5165991#0 5165991#1 123741236#0 123741236#1 203317482#0 203317482#1 203395220 10281585 10281586#0"/>
    </vehicle>
    <vehicle id="DwightNorth4.4" depart="11.11" departLane="4">
        <route edges="5165991#0 5165991#1 123741236#0 123741236#1 203317482#0 203317482#1 203395220 10281585 10281586#0"/>
    </vehicle>
    <vehicle id="DwightNorth5.4" depart="11.11" departLane="5">
        <route edges="5165991#0 5165991#1 123741236#0 123741236#1 203317482#0 203317482#1 203395220 10281585 10281586#0"/>
    </vehicle>
    <vehicle id="DwightSouth0.4" depart="11.11" departLane="0">
        <route edges="10281628#1 10281628#2 10281588 10281587 203395221#0 203395221#1 203317481#0 203317481#1 9570479 123741256"/>
    </vehicle>
    <vehicle id="DwightSouth1.4" depart="11.11" departLane="1">
        <route edges="10281628#1 10281628#2 10281588 10281587 203395221#0 203395221#1 203317481#0 203317481#1 9570479 123741256"/>
    </vehicle>
    <vehicle id="DwightSouth2.4" depart="11.11" departLane="2">
        <route edges="10281628#1 10281628#2 10281588 10281587 203395221#0 203395221#1 203317481#0 203317481#1 9570479 123741256"/>
    </vehicle>
    <vehicle id="DwightSouth3.4" depart="11.11" departLane="3">
        <route edges="10281628#1 10281628#2 10281588 10281587 203395221#0 203395221#1 203317481#0 203317481#1 9570479 123741256"/>
    </vehicle>
    <vehicle id="DwightSouth4.4" depart="11.11" departLane="4">
        <route edges="10281628#1 10281628#2 10281588 10281587 203395221#0 203395221#1 203317481#0 203317481#1 9570479 123741256"/>
    </vehicle>
    <vehicle id="DwightNorth0.5" depart="13.89" departLane="0">
        <route edges="5165991#0 5165991#1 123741236#0 123741236#1 203317482#0 203317482#1 203395220 10281585 10281586#0"/>
    </vehicle>
    <vehicle id="DwightNorth1.5" depart="13.89" departLane="1">
        <route edges="5165991#0 5165991#1 123741236#0 123741236#1 203317482#0 203317482#1 203395220 10281585 10281586#0"/>
    </vehicle>
    <vehicle id="DwightNorth2.5" depart="13.89" departLane="2">
        <route edges="5165991#0 5165991#1 123741236#0 123741236#1 203317482#0 203317482#1 203395220 10281585 10281586#0"/>
    </vehicle>
    <vehicle id="DwightNorth3.5" depart="13.89" departLane="3">
        <route edges="5165991#0 5165991#1 123741236#0 123741236#1 203317482#0 203317482#1 203395220 10281585 10281586#0"/>
    </vehicle>
    <vehicle id="DwightNorth4.5" depart="13.89" departLane="4">
        <route edges="5165991#0 5165991#1 123741236#0 123741236#1 203317482#0 203317482#1 203395220 10281585 10281586#0"/>
    </vehicle>
    <vehicle id="DwightNorth5.5" depart="13.89" departLane="5">
        <route edges="5165991#0 5165991#1 123741236#0 123741236#1 203317482#0 203317482#1 203395220 10281585 10281586#0"/>
    </vehicle>
    <vehicle id="DwightSouth0.5" depart="13.89" departLane="0">
        <route edges="10281628#1 10281628#2 10281588 10281587 203395221#0 203395221#1 203317481#0 203317481#1 9570479 123741256"/>
    </vehicle>
    <vehicle id="DwightSouth1.5" depart="13.89" departLane="1">
        <route edges="10281628#1 10281628#2 10281588 10281587 203395221#0 203395221#1 203317481#0 203317481#1 9570479 123741256"/>
    </vehicle>
    <vehicle id="DwightSouth2.5" depart="13.89" departLane="2">
        <route edges="10281628#1 10281628#2 10281588 10281587 203395221#0 203395221#1 203317481#0 203317481#1 9570479 123741256"/>
    </vehicle>
    <vehicle id="DwightSouth3.5" depart="13.89" departLane="3">
        <route edges="10281628#1 10281628#2 10281588 10281587 203395221#0 203395221#1 203317481#0 203317481#1 9570479 123741256"/>
    </vehicle>
    <vehicle id="DwightSouth4.5" depart="13.89" departLane="4">
        <route edges="10281628#1 10281628#2 10281588 10281587 203395221#0 203395221#1 203317481#0 203317481#1 9570479 123741256"/>
    </vehicle>
    <vehicle id="DwightNorth0.6" depart="16.67" departLane="0">
        <route edges="5165991#0 5165991#1 123741236#0 123741236#1 203317482#0 203317482#1 203395220 10281585 10281586#0"/>
    </vehicle>
    <vehicle id="DwightNorth1.6" depart="16.67" departLane="1">
        <route edges="5165991#0 5165991#1 123741236#0 123741236#1 203317482#0 203317482#1 203395220 10281585 10281586#0"/>
    </vehicle>
    <vehicle id="DwightNorth2.6" depart="16.67" departLane="2">
        <route edges="5165991#0 5165991#1 123741236#0 123741236#1 203317482#0 203317482#1 203395220 10281585 10281586#0"/>
    </vehicle>
    <vehicle id="DwightNorth3.6" depart="16.67" departLane="3">
        <route edges="5165991#0 5165991#1 123741236#0 123741236#1 203317482#0 203317482#1 203395220 10281585 10281586#0"/>
    </vehicle>
    <vehicle id="DwightNorth4.6" depart="16.67" departLane="4">
        <route edges="5165991#0 5165991#1 123741236#0 123741236#1 203317482#0 203317482#1 203395220 10281585 10281586#0"/>
    </vehicle>
    <vehicle id="DwightNorth5.6" depart="16.67" departLane="5">
        <route edges="5165991#0 5165991#1 123741236#0 123741236#1 203317482#0 203317482#1 203395220 10281585 10281586#0"/>
    </vehicle>
    <vehicle id="DwightSouth0.6" depart="16.67" departLane="0">
        <route edges="10281628#1 10281628#2 10281588 10281587 203395221#0 203395221#1 203317481#0 203317481#1 9570479 123741256"/>
    </vehicle>
    <vehicle id="DwightSouth1.6" depart="16.67" departLane="1">
        <route edges="10281628#1 10281628#2 10281588 10281587 203395221#0 203395221#1 203317481#0 203317481#1 9570479 123741256"/>
    </vehicle>
    <vehicle id="DwightSouth2.6" depart="16.67" departLane="2">
        <route edges="10281628#1 10281628#2 10281588 10281587 203395221#0 203395221#1 203317481#0 203317481#1 9570479 123741256"/>
    </vehicle>
    <vehicle id="DwightSouth3.6" depart="16.67" departLane="3">
        <route edges="10281628#1 10281628#2 10281588 10281587 203395221#0 203395221#1 203317481#0 203317481#1 9570479 123741256"/>
    </vehicle>
    <vehicle id="DwightSouth4.6" depart="16.67" departLane="4">
        <route edges="10281628#1 10281628#2 10281588 10281587 203395221#0 203395221#1 203317481#0 203317481#1 9570479 123741256"/>
    </vehicle>
    <vehicle id="DwightNorth0.7" depart="19.45" departLane="0">
        <route edges="5165991#0 5165991#1 123741236#0 123741236#1 203317482#0 203317482#1 203395220 10281585 10281586#0"/>
    </vehicle>
    <vehicle id="DwightNorth1.7" depart="19.45" departLane="1">
        <route edges="5165991#0 5165991#1 123741236#0 123741236#1 203317482#0 203317482#1 203395220 10281585 10281586#0"/>
    </vehicle>
    <vehicle id="DwightNorth2.7" depart="19.45" departLane="2">
        <route edges="5165991#0 5165991#1 123741236#0 123741236#1 203317482#0 203317482#1 203395220 10281585 10281586#0"/>
    </vehicle>
    <vehicle id="DwightNorth3.7" depart="19.45" departLane="3">
        <route edges="5165991#0 5165991#1 123741236#0 123741236#1 203317482#0 203317482#1 203395220 10281585 10281586#0"/>
    </vehicle>
    <vehicle id="DwightNorth4.7" depart="19.45" departLane="4">
        <route edges="5165991#0 5165991#1 123741236#0 123741236#1 203317482#0 203317482#1 203395220 10281585 10281586#0"/>
    </vehicle>
    <vehicle id="DwightNorth5.7" depart="19.45" departLane="5">
        <route edges="5165991#0 5165991#1 123741236#0 123741236#1 203317482#0 203317482#1 203395220 10281585 10281586#0"/>
    </vehicle>
    <vehicle id="DwightSouth0.7" depart="19.45" departLane="0">
        <route edges="10281628#1 10281628#2 10281588 10281587 203395221#0 203395221#1 203317481#0 203317481#1 9570479 123741256"/>
    </vehicle>
    <vehicle id="DwightSouth1.7" depart="19.45" departLane="1">
        <route edges="10281628#1 10281628#2 10281588 10281587 203395221#0 203395221#1 203317481#0 203317481#1 9570479 123741256"/>
    </vehicle>
    <vehicle id="DwightSouth2.7" depart="19.45" departLane="2">
        <route edges="10281628#1 10281628#2 10281588 10281587 203395221#0 203395221#1 203317481#0 203317481#1 9570479 123741256"/>
    </vehicle>
    <vehicle id="DwightSouth3.7" depart="19.45" departLane="3">
        <route edges="10281628#1 10281628#2 10281588 10281587 203395221#0 203395221#1 203317481#0 203317481#1 9570479 123741256"/>
    </vehicle>
    <vehicle id="DwightSouth4.7" depart="19.45" departLane="4">
        <route edges="10281628#1 10281628#2 10281588 10281587 203395221#0 203395221#1 203317481#0 203317481#1 9570479 123741256"/>
    </vehicle>
    <vehicle id="DwightNorth0.8" depart="22.22" departLane="0">
        <route edges="5165991#0 5165991#1 123741236#0 123741236#1 203317482#0 203317482#1 203395220 10281585 10281586#0"/>
    </vehicle>
    <vehicle id="DwightNorth1.8" depart="22.22" departLane="1">
        <route edges="5165991#0 5165991#1 123741236#0 123741236#1 203317482#0 203317482#1 203395220 10281585 10281586#0"/>
    </vehicle>
    <vehicle id="DwightNorth2.8" depart="22.22" departLane="2">
        <route edges="5165991#0 5165991#1 123741236#0 123741236#1 203317482#0 203317482#1 203395220 10281585 10281586#0"/>
    </vehicle>
    <vehicle id="DwightNorth3.8" depart="22.22" departLane="3">
        <route edges="5165991#0 5165991#1 123741236#0 123741236#1 203317482#0 203317482#1 203395220 10281585 10281586#0"/>
    </vehicle>
    <vehicle id="DwightNorth4.8" depart="22.22" departLane="4">
        <route edges="5165991#0 5165991#1 123741236#0 123741236#1 203317482#0 203317482#1 203395220 10281585 10281586#0"/>
    </vehicle>
    <vehicle id="DwightNorth5.8" depart="22.22" departLane="5">
        <route edges="5165991#0 5165991#1 123741236#0 123741236#1 203317482#0 203317482#1 203395220 10281585 10281586#0"/>
    </vehicle>
    <vehicle id="DwightSouth0.8" depart="22.22" departLane="0">
        <route edges="10281628#1 10281628#2 10281588 10281587 203395221#0 203395221#1 203317481#0 203317481#1 9570479 123741256"/>
    </vehicle>
    <vehicle id="DwightSouth1.8" depart="22.22" departLane="1">
        <route edges="10281628#1 10281628#2 10281588 10281587 203395221#0 203395221#1 203317481#0 203317481#1 9570479 123741256"/>
    </vehicle>
    <vehicle id="DwightSouth2.8" depart="22.22" departLane="2">
        <route edges="10281628#1 10281628#2 10281588 10281587 203395221#0 203395221#1 203317481#0 203317481#1 9570479 123741256"/>
    </vehicle>
    <vehicle id="DwightSouth3.8" depart="22.22" departLane="3">
        <route edges="10281628#1 10281628#2 10281588 10281587 203395221#0 203395221#1 203317481#0 203317481#1 9570479 123741256"/>
    </vehicle>
    <vehicle id="DwightSouth4.8" depart="22.22" departLane="4">
        <route edges="10281628#1 10281628#2 10281588 10281587 203395221#0 203395221#1 203317481#0 203317481#1 9570479 123741256"/>
    </vehicle>
    <vehicle id="DwightNorth0.9" depart="25.00" departLane="0">
        <route edges="5165991#0 5165991#1 123741236#0 123741236#1 203317482#0 203317482#1 203395220 10281585 10281586#0"/>
    </vehicle>
    <vehicle id="DwightNorth1.9" depart="25.00" departLane="1">
        <route edges="5165991#0 5165991#1 123741236#0 123741236#1 203317482#0 203317482#1 203395220 10281585 10281586#0"/>
    </vehicle>
    <vehicle id="DwightNorth2.9" depart="25.00" departLane="2">
        <route edges="5165991#0 5165991#1 123741236#0 123741236#1 203317482#0 203317482#1 203395220 10281585 10281586#0"/>
    </vehicle>
    <vehicle id="DwightNorth3.9" depart="25.00" departLane="3">
        <route edges="5165991#0 5165991#1 123741236#0 123741236#1 203317482#0 203317482#1 203395220 10281585 10281586#0"/>
    </vehicle>
    <vehicle id="DwightNorth4.9" depart="25.00" departLane="4">
        <route edges="5165991#0 5165991#1 123741236#0 123741236#1 203317482#0 203317482#1 203395220 10281585 10281586#0"/>
    </vehicle>
    <vehicle id="DwightNorth5.9" depart="25.00" departLane="5">
        <route edges="5165991#0 5165991#1 123741236#0 123741236#1 203317482#0 203317482#1 203395220 10281585 10281586#0"/>
    </vehicle>
    <vehicle id="DwightSouth0.9" depart="25.00" departLane="0">
        <route edges="10281628#1 10281628#2 10281588 10281587 203395221#0 203395221#1 203317481#0 203317481#1 9570479 123741256"/>
    </vehicle>
    <vehicle id="DwightSouth1.9" depart="25.00" departLane="1">
        <route edges="10281628#1 10281628#2 10281588 10281587 203395221#0 203395221#1 203317481#0 203317481#1 9570479 123741256"/>
    </vehicle>
    <vehicle id="DwightSouth2.9" depart="25.00" departLane="2">
        <route edges="10281628#1 10281628#2 10281588 10281587 203395221#0 203395221#1 203317481#0 203317481#1 9570479 123741256"/>
    </vehicle>
    <vehicle id="DwightSouth3.9" depart="25.00" departLane="3">
        <route edges="10281628#1 10281628#2 10281588 10281587 203395221#0 203395221#1 203317481#0 203317481#1 9570479 123741256"/>
    </vehicle>
    <vehicle id="DwightSouth4.9" depart="25.00" departLane="4">
        <route edges="10281628#1 10281628#2 10281588 10281587 203395221#0 203395221#1 203317481#0 203317481#1 9570479 123741256"/>
    </vehicle>
    <vehicle id="DwightNorth0.10" depart="27.78" departLane="0">
        <route edges="5165991#0 5165991#1 123741236#0 123741236#1 203317482#0 203317482#1 203395220 10281585 10281586#0"/>
    </vehicle>
    <vehicle id="DwightNorth1.10" depart="27.78" departLane="1">
        <route edges="5165991#0 5165991#1 123741236#0 123741236#1 203317482#0 203317482#1 203395220 10281585 10281586#0"/>
    </vehicle>
    <vehicle id="DwightNorth2.10" depart="27.78" departLane="2">
        <route edges="5165991#0 5165991#1 123741236#0 123741236#1 203317482#0 203317482#1 203395220 10281585 10281586#0"/>
    </vehicle>
    <vehicle id="DwightNorth3.10" depart="27.78" departLane="3">
        <route edges="5165991#0 5165991#1 123741236#0 123741236#1 203317482#0 203317482#1 203395220 10281585 10281586#0"/>
    </vehicle>
    <vehicle id="DwightNorth4.10" depart="27.78" departLane="4">
        <route edges="5165991#0 5165991#1 123741236#0 123741236#1 203317482#0 203317482#1 203395220 10281585 10281586#0"/>
    </vehicle>
    <vehicle id="DwightNorth5.10" depart="27.78" departLane="5">
        <route edges="5165991#0 5165991#1 123741236#0 123741236#1 203317482#0 203317482#1 203395220 10281585 10281586#0"/>
    </vehicle>
    <vehicle id="DwightSouth0.10" depart="27.78" departLane="0">
        <route edges="10281628#1 10281628#2 10281588 10281587 203395221#0 203395221#1 203317481#0 203317481#1 9570479 123741256"/>
    </vehicle>
    <vehicle id="DwightSouth1.10" depart="27.78" departLane="1">
        <route edges="10281628#1 10281628#2 10281588 10281587 203395221#0 203395221#1 203317481#0 203317481#1 9570479 123741256"/>
    </vehicle>
    <vehicle id="DwightSouth2.10" depart="27.78" departLane="2">
        <route edges="10281628#1 10281628#2 10281588 10281587 203395221#0 203395221#1 203317481#0 203317481#1 9570479 123741256"/>
    </vehicle>
    <vehicle id="DwightSouth3.10" depart="27.78" departLane="3">
        <route edges="10281628#1 10281628#2 10281588 10281587 203395221#0 203395221#1 203317481#0 203317481#1 9570479 123741256"/>
    </vehicle>
    <vehicle id="DwightSouth4.10" depart="27.78" departLane="4">
        <route edges="10281628#1 10281628#2 10281588 10281587 203395221#0 203395221#1 203317481#0 203317481#1 9570479 123741256"/>
    </vehicle>
    <vehicle id="DwightNorth0.11" depart="30.56" departLane="0">
        <route edges="5165991#0 5165991#1 123741236#0 123741236#1 203317482#0 203317482#1 203395220 10281585 10281586#0"/>
    </vehicle>
    <vehicle id="DwightNorth1.11" depart="30.56" departLane="1">
        <route edges="5165991#0 5165991#1 123741236#0 123741236#1 203317482#0 203317482#1 203395220 10281585 10281586#0"/>
    </vehicle>
    <vehicle id="DwightNorth2.11" depart="30.56" departLane="2">
        <route edges="5165991#0 5165991#1 123741236#0 123741236#1 203317482#0 203317482#1 203395220 10281585 10281586#0"/>
    </vehicle>
    <vehicle id="DwightNorth3.11" depart="30.56" departLane="3">
        <route edges="5165991#0 5165991#1 123741236#0 123741236#1 203317482#0 203317482#1 203395220 10281585 10281586#0"/>
    </vehicle>
    <vehicle id="DwightNorth4.11" depart="30.56" departLane="4">
        <route edges="5165991#0 5165991#1 123741236#0 123741236#1 203317482#0 203317482#1 203395220 10281585 10281586#0"/>
    </vehicle>
    <vehicle id="DwightNorth5.11" depart="30.56" departLane="5">
        <route edges="5165991#0 5165991#1 123741236#0 123741236#1 203317482#0 203317482#1 203395220 10281585 10281586#0"/>
    </vehicle>
    <vehicle id="DwightSouth0.11" depart="30.56" departLane="0">
        <route edges="10281628#1 10281628#2 10281588 10281587 203395221#0 203395221#1 203317481#0 203317481#1 9570479 123741256"/>
    </vehicle>
    <vehicle id="DwightSouth1.11" depart="30.56" departLane="1">
        <route edges="10281628#1 10281628#2 10281588 10281587 203395221#0 203395221#1 203317481#0 203317481#1 9570479 123741256"/>
    </vehicle>
    <vehicle id="DwightSouth2.11" depart="30.56" departLane="2">
        <route edges="10281628#1 10281628#2 10281588 10281587 203395221#0 203395221#1 203317481#0 203317481#1 9570479 123741256"/>
    </vehicle>
    <vehicle id="DwightSouth3.11" depart="30.56" departLane="3">
        <route edges="10281628#1 10281628#2 10281588 10281587 203395221#0 203395221#1 203317481#0 203317481#1 9570479 123741256"/>
    </vehicle>
    <vehicle id="DwightSouth4.11" depart="30.56" departLane="4">
        <route edges="10281628#1 10281628#2 10281588 10281587 203395221#0 203395221#1 203317481#0 203317481#1 9570479 123741256"/>
    </vehicle>
    <vehicle id="DwightNorth0.12" depart="33.34" departLane="0">
        <route edges="5165991#0 5165991#1 123741236#0 123741236#1 203317482#0 203317482#1 203395220 10281585 10281586#0"/>
    </vehicle>
    <vehicle id="DwightNorth1.12" depart="33.34" departLane="1">
        <route edges="5165991#0 5165991#1 123741236#0 123741236#1 203317482#0 203317482#1 203395220 10281585 10281586#0"/>
    </vehicle>
    <vehicle id="DwightNorth2.12" depart="33.34" departLane="2">
        <route edges="5165991#0 5165991#1 123741236#0 123741236#1 203317482#0 203317482#1 203395220 10281585 10281586#0"/>
    </vehicle>
    <vehicle id="DwightNorth3.12" depart="33.34" departLane="3">
        <route edges="5165991#0 5165991#1 123741236#0 123741236#1 203317482#0 203317482#1 203395220 10281585 10281586#0"/>
    </vehicle>
    <vehicle id="DwightNorth4.12" depart="33.34" departLane="4">
        <route edges="5165991#0 5165991#1 123741236#0 123741236#1 203317482#0 203317482#1 203395220 10281585 10281586#0"/>
    </vehicle>
    <vehicle id="DwightNorth5.12" depart="33.34" departLane="5">
        <route edges="5165991#0 5165991#1 123741236#0 123741236#1 203317482#0 203317482#1 203395220 10281585 10281586#0"/>
    </vehicle>
    <vehicle id="DwightSouth0.12" depart="33.34" departLane="0">
        <route edges="10281628#1 10281628#2 10281588 10281587 203395221#0 203395221#1 203317481#0 203317481#1 9570479 123741256"/>
    </vehicle>
    <vehicle id="DwightSouth1.12" depart="33.34" departLane="1">
        <route edges="10281628#1 10281628#2 10281588 10281587 203395221#0 203395221#1 203317481#0 203317481#1 9570479 123741256"/>
    </vehicle>
    <vehicle id="DwightSouth2.12" depart="33.34" departLane="2">
        <route edges="10281628#1 10281628#2 10281588 10281587 203395221#0 203395221#1 203317481#0 203317481#1 9570479 123741256"/>
    </vehicle>
    <vehicle id="DwightSouth3.12" depart="33.34" departLane="3">
        <route edges="10281628#1 10281628#2 10281588 10281587 203395221#0 203395221#1 203317481#0 203317481#1 9570479 123741256"/>
    </vehicle>
    <vehicle id="DwightSouth4.12" depart="33.34" departLane="4">