<additionals xmlns:xsi="http://www.w3.org/2001/XMLSchema-instance" xsi:noNamespaceSchemaLocation="http://sumo.sf.net/xsd/additional_file.xsd">
    
    <variableSpeedSign id="vss" lanes="main_2a_1" file="input_definition2.def.xml"/>    
    <variableSpeedSign id="vss" lanes="main_2b_0" file="input_definition.def.xml"/>
    <variableSpeedSign id="vss" lanes="main_2b_1" file="input_definition3.def.xml"/>

    <!--<inductionLoop id="start" lane="1si_1" pos="0" freq="1" file="start.xml" friendlyPos="true" splitByType="false" /> -->

</additionals>
