<nodes xmlns:xsi="http://www.w3.org/2001/XMLSchema-instance" xsi:noNamespaceSchemaLocation="http://sumo.sf.net/xsd/nodes_file.xsd">

   <node id="p1" x="-1000.0" y="0.0" type="priority"/>
   <node id="p2" x="-500.0" y="0.0" type="priority"/>

   <node id="0" x="0.0" y="0.0" type="priority"/>

   <node id="m1" x="500.0" y="0.0" type="priority"/>
   <node id="m2" x="1000.0" y="0.0" type="priority"/>
   <node id="m3" x="1500.0" y="0.0" type="priority"/>
   <node id="m4" x="2000.0" y="0.0" type="priority"/>
   <node id="m5" x="2500.0" y="0.0" type="priority"/>
   <node id="m6" x="2520" y="0.0" type="priority"/>
   
   <node id="b1" x="100.0" y="-40.0" type="priority"/>
   <node id="b2" x="2500.0" y="-40.0" type="priority"/>
   <node id="b3" x="2520.0" y="-40.0" type="priority"/>

</nodes>
