<routes >
 <routeDistribution id="routedist" begin="0" end="1800" last="3600">
   <route id="kennedy" edges="56640729#0 56640729#1 56640729#2 56640729#3 56640729#4 56640729#5 56640728#0 56640728#1 56640728#2 56640728#3 56640728#4 56640728#5 56640728#6 56640728#7 56640728#8 55444662 23595095#0 23595095#1 53349130#0 53349130#1" probability="0.75"/>
   <route id="adenauer" edges="56640729#0 56640729#1 56640729#2 56640729#3 56640729#4 56640729#5 56640724#0 56640724#1 56640724#2 56640724#3 56640724#4 48977754#0 48977754#1 48977754#2 48977754#3 48977754#4 48977754#5 95511865#0 95511865#1 126603964 -149693909#2 -149693909#1 -149693909#0 -149693907 49248917#0 49248917#1 149693908 126603969 53349130#0 53349130#1" probability="1" />
<route id="thuengen" edges="56640729#0 56640729#1 56640729#2 56640729#3 56640729#4 56640729#5 95511899 95511885#0 95511885#1 95511885#2 95511885#3 95511885#4 95511885#5 -50649897 -37847306#1 56640728#8 55444662 23595095#0 23595095#1 53349130#0 53349130#1" probability="0.5" />
    </routeDistribution>
    
   <vType id="KRAUSS_DEFAULT" accel="2.6" decel="4.5" sigma="0.5" length="7.5" minGap="2" maxSpeed="70" color="1,1,0"/>

   <flow id="0" type="KRAUSS_DEFAULT" route="routedist" begin="0" end="30000" vehsPerHour="1000" departPos="base" departSpeed="max" departLane="0" />
   <flow id="1" type="KRAUSS_DEFAULT" route="routedist" begin="1" end="30000" vehsPerHour="1000" departPos="base" departSpeed="max" departLane="1" />

</routes>
