<?xml version="1.0" encoding="UTF-8"?>

<!-- generated on Wed Dec 26 13:23:11 2012 by SUMO netconvert Version 0.15.0
<?xml version="1.0" encoding="UTF-8"?>

<configuration xmlns:xsi="http://www.w3.org/2001/XMLSchema-instance" xsi:noNamespaceSchemaLocation="http://sumo.sf.net/xsd/netconvertConfiguration.xsd">

    <input>
        <node-files value="input_nodes.nod.xml"/>
        <edge-files value="input_edges.edg.xml"/>
        <connection-files value="input_connections.con.xml"/>
    </input>

    <output>
        <output-file value="net.net.xml"/>
    </output>

    <processing>
        <speed-in-kmh value="true"/>
    </processing>

</configuration>
-->

<net>

    <location netOffset="1000.00,40.00" convBoundary="0.00,0.00,3520.00,40.00" origBoundary="-1000.00,-40.00,2520.00,0.00" projParameter="!"/>

    <edge id=":0_0" function="internal">
        <lane id=":0_0_0" index="0" speed="28.47" length="5.16" shape="1012.74,31.75 1017.86,31.08"/>
    </edge>
    <edge id=":0_1" function="internal">
        <lane id=":0_1_0" index="0" speed="31.94" length="5.00" shape="1012.74,35.05 1017.74,35.05"/>
    </edge>
    <edge id=":0_2" function="internal">
        <lane id=":0_2_0" index="0" speed="31.94" length="5.00" shape="1012.74,38.35 1017.74,38.35"/>
    </edge>
    <edge id=":2_0" function="internal">
        <lane id=":2_0_0" index="0" speed="31.94" length="0.10" shape="2400.00,35.05 2400.00,35.05"/>
    </edge>
    <edge id=":2_1" function="internal">
        <lane id=":2_1_0" index="0" speed="31.94" length="0.10" shape="2400.00,38.35 2400.00,38.35"/>
    </edge>
    <edge id=":2a_0" function="internal">
        <lane id=":2a_0_0" index="0" speed="31.94" length="0.10" shape="2500.00,35.05 2500.00,35.05"/>
    </edge>
    <edge id=":2a_1" function="internal">
        <lane id=":2a_1_0" index="0" speed="31.94" length="0.10" shape="2500.00,38.35 2500.00,38.35"/>
    </edge>
    <edge id=":2b_0" function="internal">
        <lane id=":2b_0_0" index="0" speed="31.94" length="0.10" shape="2510.00,35.05 2510.00,35.05"/>
    </edge>
    <edge id=":2b_1" function="internal">
        <lane id=":2b_1_0" index="0" speed="31.94" length="0.10" shape="2510.00,38.35 2510.00,38.35"/>
    </edge>
    <edge id=":2c_0" function="internal">
        <lane id=":2c_0_0" index="0" speed="31.94" length="0.10" shape="3500.00,35.05 3500.00,35.05"/>
    </edge>
    <edge id=":2c_1" function="internal">
        <lane id=":2c_1_0" index="0" speed="31.94" length="0.10" shape="3500.00,38.35 3500.00,38.35"/>
    </edge>
    <edge id=":3_0" function="internal">
        <lane id=":3_0_0" index="0" speed="25.00" length="0.61" shape="1099.40,-1.54 1099.99,-1.65"/>
    </edge>
    <edge id=":4_0" function="internal">
        <lane id=":4_0_0" index="0" speed="25.00" length="0.10" shape="3500.00,-1.65 3500.00,-1.65"/>
    </edge>
    <edge id=":m1_0" function="internal">
        <lane id=":m1_0_0" index="0" speed="31.94" length="4.46" shape="498.50,35.05 501.50,31.75"/>
    </edge>
    <edge id=":m1_1" function="internal">
        <lane id=":m1_1_0" index="0" speed="31.94" length="3.00" shape="498.50,35.05 501.50,35.05"/>
    </edge>
    <edge id=":m1_2" function="internal">
        <lane id=":m1_2_0" index="0" speed="31.94" length="3.00" shape="498.50,38.35 501.50,38.35"/>
    </edge>

    <edge id="bypass_1" from="0" to="3" priority="1">
        <lane id="bypass_1_0" index="0" speed="25.00" length="87.82" shape="1017.86,31.08 1099.40,-1.54"/>
    </edge>
    <edge id="bypass_2" from="3" to="4" priority="1">
        <lane id="bypass_2_0" index="0" speed="25.00" length="2400.01" shape="1099.99,-1.65 3500.00,-1.65"/>
    </edge>
    <edge id="bypass_2b" from="4" to="4b" priority="1">
        <lane id="bypass_2b_0" index="0" speed="25.00" length="20.00" shape="3500.00,-1.65 3520.00,-1.65"/>
    </edge>
    <edge id="main_1" from="1" to="m1" priority="2">
        <lane id="main_1_0" index="0" speed="31.94" length="498.50" shape="0.00,35.05 498.50,35.05"/>
        <lane id="main_1_1" index="1" speed="31.94" length="498.50" shape="0.00,38.35 498.50,38.35"/>
    </edge>
    <edge id="main_1b" from="m1" to="0" priority="3">
        <lane id="main_1b_0" index="0" speed="31.94" length="511.24" shape="501.50,31.75 1012.74,31.75"/>
        <lane id="main_1b_1" index="1" speed="31.94" length="511.24" shape="501.50,35.05 1012.74,35.05"/>
        <lane id="main_1b_2" index="2" speed="31.94" length="511.24" shape="501.50,38.35 1012.74,38.35"/>
    </edge>
    <edge id="main_2" from="0" to="2" priority="1">
        <lane id="main_2_0" index="0" speed="31.94" length="1382.26" shape="1017.74,35.05 2400.00,35.05"/>
        <lane id="main_2_1" index="1" speed="31.94" length="1382.26" shape="1017.74,38.35 2400.00,38.35"/>
    </edge>
    <edge id="main_2a" from="2" to="2a" priority="1">
        <lane id="main_2a_0" index="0" speed="31.94" length="100.00" shape="2400.00,35.05 2500.00,35.05"/>
        <lane id="main_2a_1" index="1" speed="31.94" length="100.00" shape="2400.00,38.35 2500.00,38.35"/>
    </edge>
    <edge id="main_2b" from="2a" to="2b" priority="1">
        <lane id="main_2b_0" index="0" speed="31.94" length="10.00" shape="2500.00,35.05 2510.00,35.05"/>
        <lane id="main_2b_1" index="1" speed="31.94" length="10.00" shape="2500.00,38.35 2510.00,38.35"/>
    </edge>
    <edge id="main_2c" from="2b" to="2c" priority="1">
        <lane id="main_2c_0" index="0" speed="31.94" length="990.00" shape="2510.00,35.05 3500.00,35.05"/>
        <lane id="main_2c_1" index="1" speed="31.94" length="990.00" shape="2510.00,38.35 3500.00,38.35"/>
    </edge>
    <edge id="main_2d" from="2c" to="2d" priority="1">
        <lane id="main_2d_0" index="0" speed="31.94" length="20.00" shape="3500.00,35.05 3520.00,35.05"/>
        <lane id="main_2d_1" index="1" speed="31.94" length="20.00" shape="3500.00,38.35 3520.00,38.35"/>
    </edge>

    <junction id="0" type="priority" x="1000.00" y="40.00" incLanes="main_1b_0 main_1b_1 main_1b_2" intLanes=":0_0_0 :0_1_0 :0_2_0" shape="1017.74,39.95 1017.74,33.45 1018.46,32.56 1017.27,29.59 1012.74,30.15 1012.74,39.95">
        <request index="0" response="000" foes="000" cont="0"/>
        <request index="1" response="000" foes="000" cont="0"/>
        <request index="2" response="000" foes="000" cont="0"/>
    </junction>
    <junction id="1" type="unregulated" x="0.00" y="40.00" incLanes="" intLanes="" shape="-0.00,39.95 -0.00,33.45">
    </junction>
    <junction id="2" type="priority" x="2400.00" y="40.00" incLanes="main_2_0 main_2_1" intLanes=":2_0_0 :2_1_0" shape="2400.00,39.95 2400.00,33.45 2400.00,39.95">
        <request index="0" response="00" foes="00" cont="0"/>
        <request index="1" response="00" foes="00" cont="0"/>
    </junction>
    <junction id="2a" type="priority" x="2500.00" y="40.00" incLanes="main_2a_0 main_2a_1" intLanes=":2a_0_0 :2a_1_0" shape="2500.00,39.95 2500.00,33.45 2500.00,39.95">
        <request index="0" response="00" foes="00" cont="0"/>
        <request index="1" response="00" foes="00" cont="0"/>
    </junction>
    <junction id="2b" type="priority" x="2510.00" y="40.00" incLanes="main_2b_0 main_2b_1" intLanes=":2b_0_0 :2b_1_0" shape="2510.00,39.95 2510.00,33.45 2510.00,39.95">
        <request index="0" response="00" foes="00" cont="0"/>
        <request index="1" response="00" foes="00" cont="0"/>
    </junction>
    <junction id="2c" type="priority" x="3500.00" y="40.00" incLanes="main_2c_0 main_2c_1" intLanes=":2c_0_0 :2c_1_0" shape="3500.00,39.95 3500.00,33.45 3500.00,39.95">
        <request index="0" response="00" foes="00" cont="0"/>
        <request index="1" response="00" foes="00" cont="0"/>
    </junction>
    <junction id="2d" type="unregulated" x="3520.00" y="40.00" incLanes="main_2d_0 main_2d_1" intLanes="" shape="3520.00,33.45 3520.00,39.95">
    </junction>
    <junction id="3" type="priority" x="1100.00" y="0.00" incLanes="bypass_1_0" intLanes=":3_0_0" shape="1099.99,-0.05 1099.99,-3.25 1098.80,-3.02 1099.99,-0.05">
        <request index="0" response="0" foes="0" cont="0"/>
    </junction>
    <junction id="4" type="priority" x="3500.00" y="0.00" incLanes="bypass_2_0" intLanes=":4_0_0" shape="3500.00,-0.05 3500.00,-3.25 3500.00,-0.05">
        <request index="0" response="0" foes="0" cont="0"/>
    </junction>
    <junction id="4b" type="unregulated" x="3520.00" y="0.00" incLanes="bypass_2b_0" intLanes="" shape="3520.00,-3.25 3520.00,-0.05">
    </junction>
    <junction id="m1" type="priority" x="500.00" y="40.00" incLanes="main_1_0 main_1_1" intLanes=":m1_0_0 :m1_1_0 :m1_2_0" shape="501.50,39.95 501.50,30.15 498.50,33.45 498.50,39.95">
        <request index="0" response="000" foes="000" cont="0"/>
        <request index="1" response="000" foes="000" cont="0"/>
        <request index="2" response="000" foes="000" cont="0"/>
    </junction>

    <connection from="bypass_1" to="bypass_2" fromLane="0" toLane="0" via=":3_0_0" dir="s" state="M"/>
    <connection from="bypass_2" to="bypass_2b" fromLane="0" toLane="0" via=":4_0_0" dir="s" state="M"/>
    <connection from="main_1" to="main_1b" fromLane="0" toLane="0" via=":m1_0_0" dir="s" state="M"/>
    <connection from="main_1" to="main_1b" fromLane="0" toLane="1" via=":m1_1_0" dir="s" state="M"/>
    <connection from="main_1" to="main_1b" fromLane="1" toLane="2" via=":m1_2_0" dir="s" state="M"/>
    <connection from="main_1b" to="bypass_1" fromLane="0" toLane="0" via=":0_0_0" dir="s" state="M"/>
    <connection from="main_1b" to="main_2" fromLane="1" toLane="0" via=":0_1_0" dir="s" state="M"/>
    <connection from="main_1b" to="main_2" fromLane="2" toLane="1" via=":0_2_0" dir="s" state="M"/>
    <connection from="main_2" to="main_2a" fromLane="0" toLane="0" via=":2_0_0" dir="s" state="M"/>
    <connection from="main_2" to="main_2a" fromLane="1" toLane="1" via=":2_1_0" dir="s" state="M"/>
    <connection from="main_2a" to="main_2b" fromLane="0" toLane="0" via=":2a_0_0" dir="s" state="M"/>
    <connection from="main_2a" to="main_2b" fromLane="1" toLane="1" via=":2a_1_0" dir="s" state="M"/>
    <connection from="main_2b" to="main_2c" fromLane="0" toLane="0" via=":2b_0_0" dir="s" state="M"/>
    <connection from="main_2b" to="main_2c" fromLane="1" toLane="1" via=":2b_1_0" dir="s" state="M"/>
    <connection from="main_2c" to="main_2d" fromLane="0" toLane="0" via=":2c_0_0" dir="s" state="M"/>
    <connection from="main_2c" to="main_2d" fromLane="1" toLane="1" via=":2c_1_0" dir="s" state="M"/>

    <connection from=":0_0" to="bypass_1" fromLane="0" toLane="0" dir="s" state="M"/>
    <connection from=":0_1" to="main_2" fromLane="0" toLane="0" dir="s" state="M"/>
    <connection from=":0_2" to="main_2" fromLane="0" toLane="1" dir="s" state="M"/>
    <connection from=":2_0" to="main_2a" fromLane="0" toLane="0" dir="s" state="M"/>
    <connection from=":2_1" to="main_2a" fromLane="0" toLane="1" dir="s" state="M"/>
    <connection from=":2a_0" to="main_2b" fromLane="0" toLane="0" dir="s" state="M"/>
    <connection from=":2a_1" to="main_2b" fromLane="0" toLane="1" dir="s" state="M"/>
    <connection from=":2b_0" to="main_2c" fromLane="0" toLane="0" dir="s" state="M"/>
    <connection from=":2b_1" to="main_2c" fromLane="0" toLane="1" dir="s" state="M"/>
    <connection from=":2c_0" to="main_2d" fromLane="0" toLane="0" dir="s" state="M"/>
    <connection from=":2c_1" to="main_2d" fromLane="0" toLane="1" dir="s" state="M"/>
    <connection from=":3_0" to="bypass_2" fromLane="0" toLane="0" dir="s" state="M"/>
    <connection from=":4_0" to="bypass_2b" fromLane="0" toLane="0" dir="s" state="M"/>
    <connection from=":m1_0" to="main_1b" fromLane="0" toLane="0" dir="s" state="M"/>
    <connection from=":m1_1" to="main_1b" fromLane="0" toLane="1" dir="s" state="M"/>
    <connection from=":m1_2" to="main_1b" fromLane="0" toLane="2" dir="s" state="M"/>

</net>
