<routes >
   <route id="main" edges="pre_1 pre_2 main_1 main_2a main_2b main_3a main_3b main_4a main_4b main_5a main_5b main_6" />
   <route id="bypass" edges="pre_1 pre_2 bypass_1 bypass_2 bypass_2 bypass_3" />

   <vType id="KRAUSS_DEFAULT" accel="2.6" decel="4.5" sigma="0.5" length="7.5" minGap="2" maxSpeed="70" color="1,1,0"/>

   <flow id="0" type="KRAUSS_DEFAULT" route="main" begin="0" end="30000" vehsPerHour="1250" departPos="base" departSpeed="max" departLane="0" />
   <flow id="1" type="KRAUSS_DEFAULT" route="main" begin="1" end="30000" vehsPerHour="1250" departPos="base" departSpeed="max" departLane="1" />

<!--
<flow id="1" type="KRAUSS_DEFAULT" route="bypass" begin="0" end="30000" vehsPerHour="1500" departPos="base" departSpeed="max" departLane="1" />
-->

<!--
    <flow id="1" type="KRAUSS_DEFAULT" route="bypass" begin="0" end="30000" vehsPerHour="1500" departPos="base" departSpeed="max" departLane="1" />

    <flow id="0" type="KRAUSS_DEFAULT" route="bypass" begin="1" end="30000" vehsPerHour="1500" departPos="base" departSpeed="max" departLane="0" />
-->
<!--
<flow id="3" type="KRAUSS_DEFAULT" route="main" begin="3" end="3600" vehsPerHour="850" departPos="base" departSpeed="max" departLane="1" />
-->
</routes>
