<?xml version="1.0" encoding="UTF-8"?>

<!-- generated on Sun Feb 10 13:47:05 2013 by SUMO netconvert Version 0.15.0
<?xml version="1.0" encoding="UTF-8"?>

<configuration xmlns:xsi="http://www.w3.org/2001/XMLSchema-instance" xsi:noNamespaceSchemaLocation="http://sumo.sf.net/xsd/netconvertConfiguration.xsd">

    <input>
        <node-files value="input_nodes.nod.xml"/>
        <edge-files value="input_edges.edg.xml"/>
        <connection-files value="input_connections.con.xml"/>
    </input>

    <output>
        <output-file value="net.net.xml"/>
    </output>

    <processing>
        <speed-in-kmh value="true"/>
    </processing>

</configuration>
-->

<net>

    <location netOffset="1000.00,40.00" convBoundary="0.00,0.00,3550.00,40.00" origBoundary="-1000.00,-40.00,2550.00,0.00" projParameter="!"/>

    <edge id=":0_0" function="internal">
        <lane id=":0_0_0" index="0" speed="28.47" length="5.16" shape="1012.74,31.75 1017.86,31.08"/>
    </edge>
    <edge id=":0_1" function="internal">
        <lane id=":0_1_0" index="0" speed="31.94" length="5.00" shape="1012.74,35.05 1017.74,35.05"/>
    </edge>
    <edge id=":0_2" function="internal">
        <lane id=":0_2_0" index="0" speed="31.94" length="5.00" shape="1012.74,38.35 1017.74,38.35"/>
    </edge>
    <edge id=":b1_0" function="internal">
        <lane id=":b1_0_0" index="0" speed="25.00" length="0.61" shape="1099.40,-1.54 1099.99,-1.65"/>
    </edge>
    <edge id=":b2_0" function="internal">
        <lane id=":b2_0_0" index="0" speed="25.00" length="0.10" shape="3500.00,-1.65 3500.00,-1.65"/>
    </edge>
    <edge id=":m1_0" function="internal">
        <lane id=":m1_0_0" index="0" speed="31.94" length="0.10" shape="1500.00,35.05 1500.00,35.05"/>
    </edge>
    <edge id=":m1_1" function="internal">
        <lane id=":m1_1_0" index="0" speed="31.94" length="0.10" shape="1500.00,38.35 1500.00,38.35"/>
    </edge>
    <edge id=":m2_0" function="internal">
        <lane id=":m2_0_0" index="0" speed="31.94" length="0.10" shape="2000.00,35.05 2000.00,35.05"/>
    </edge>
    <edge id=":m2_1" function="internal">
        <lane id=":m2_1_0" index="0" speed="31.94" length="0.10" shape="2000.00,38.35 2000.00,38.35"/>
    </edge>
    <edge id=":m2a_0" function="internal">
        <lane id=":m2a_0_0" index="0" speed="31.94" length="0.10" shape="1520.00,35.05 1520.00,35.05"/>
    </edge>
    <edge id=":m2a_1" function="internal">
        <lane id=":m2a_1_0" index="0" speed="31.94" length="0.10" shape="1520.00,38.35 1520.00,38.35"/>
    </edge>
    <edge id=":m3_0" function="internal">
        <lane id=":m3_0_0" index="0" speed="31.94" length="0.10" shape="2500.00,35.05 2500.00,35.05"/>
    </edge>
    <edge id=":m3_1" function="internal">
        <lane id=":m3_1_0" index="0" speed="31.94" length="0.10" shape="2500.00,38.35 2500.00,38.35"/>
    </edge>
    <edge id=":m3a_0" function="internal">
        <lane id=":m3a_0_0" index="0" speed="31.94" length="0.10" shape="2020.00,35.05 2020.00,35.05"/>
    </edge>
    <edge id=":m3a_1" function="internal">
        <lane id=":m3a_1_0" index="0" speed="31.94" length="0.10" shape="2020.00,38.35 2020.00,38.35"/>
    </edge>
    <edge id=":m4_0" function="internal">
        <lane id=":m4_0_0" index="0" speed="31.94" length="0.10" shape="3000.00,35.05 3000.00,35.05"/>
    </edge>
    <edge id=":m4_1" function="internal">
        <lane id=":m4_1_0" index="0" speed="31.94" length="0.10" shape="3000.00,38.35 3000.00,38.35"/>
    </edge>
    <edge id=":m4a_0" function="internal">
        <lane id=":m4a_0_0" index="0" speed="31.94" length="0.10" shape="2520.00,35.05 2520.00,35.05"/>
    </edge>
    <edge id=":m4a_1" function="internal">
        <lane id=":m4a_1_0" index="0" speed="31.94" length="0.10" shape="2520.00,38.35 2520.00,38.35"/>
    </edge>
    <edge id=":m5_0" function="internal">
        <lane id=":m5_0_0" index="0" speed="31.94" length="0.10" shape="3500.00,35.05 3500.00,35.05"/>
    </edge>
    <edge id=":m5_1" function="internal">
        <lane id=":m5_1_0" index="0" speed="31.94" length="0.10" shape="3500.00,38.35 3500.00,38.35"/>
    </edge>
    <edge id=":m5a_0" function="internal">
        <lane id=":m5a_0_0" index="0" speed="31.94" length="0.10" shape="3020.00,35.05 3020.00,35.05"/>
    </edge>
    <edge id=":m5a_1" function="internal">
        <lane id=":m5a_1_0" index="0" speed="31.94" length="0.10" shape="3020.00,38.35 3020.00,38.35"/>
    </edge>
    <edge id=":p2_0" function="internal">
        <lane id=":p2_0_0" index="0" speed="31.94" length="4.46" shape="498.50,35.05 501.50,31.75"/>
    </edge>
    <edge id=":p2_1" function="internal">
        <lane id=":p2_1_0" index="0" speed="31.94" length="3.00" shape="498.50,35.05 501.50,35.05"/>
    </edge>
    <edge id=":p2_2" function="internal">
        <lane id=":p2_2_0" index="0" speed="31.94" length="3.00" shape="498.50,38.35 501.50,38.35"/>
    </edge>

    <edge id="bypass_1" from="0" to="b1" priority="1">
        <lane id="bypass_1_0" index="0" speed="25.00" length="87.82" shape="1017.86,31.08 1099.40,-1.54"/>
    </edge>
    <edge id="bypass_2" from="b1" to="b2" priority="1">
        <lane id="bypass_2_0" index="0" speed="25.00" length="2400.01" shape="1099.99,-1.65 3500.00,-1.65"/>
    </edge>
    <edge id="bypass_3" from="b2" to="b3" priority="1">
        <lane id="bypass_3_0" index="0" speed="25.00" length="50.00" shape="3500.00,-1.65 3550.00,-1.65"/>
    </edge>
    <edge id="main_1" from="0" to="m1" priority="1">
        <lane id="main_1_0" index="0" speed="31.94" length="482.26" shape="1017.74,35.05 1500.00,35.05"/>
        <lane id="main_1_1" index="1" speed="31.94" length="482.26" shape="1017.74,38.35 1500.00,38.35"/>
    </edge>
    <edge id="main_2a" from="m1" to="m2a" priority="1">
        <lane id="main_2a_0" index="0" speed="31.94" length="20.00" shape="1500.00,35.05 1520.00,35.05"/>
        <lane id="main_2a_1" index="1" speed="31.94" length="20.00" shape="1500.00,38.35 1520.00,38.35"/>
    </edge>
    <edge id="main_2b" from="m2a" to="m2" priority="1">
        <lane id="main_2b_0" index="0" speed="31.94" length="480.00" shape="1520.00,35.05 2000.00,35.05"/>
        <lane id="main_2b_1" index="1" speed="31.94" length="480.00" shape="1520.00,38.35 2000.00,38.35"/>
    </edge>
    <edge id="main_3a" from="m2" to="m3a" priority="1">
        <lane id="main_3a_0" index="0" speed="31.94" length="20.00" shape="2000.00,35.05 2020.00,35.05"/>
        <lane id="main_3a_1" index="1" speed="31.94" length="20.00" shape="2000.00,38.35 2020.00,38.35"/>
    </edge>
    <edge id="main_3b" from="m3a" to="m3" priority="1">
        <lane id="main_3b_0" index="0" speed="31.94" length="480.00" shape="2020.00,35.05 2500.00,35.05"/>
        <lane id="main_3b_1" index="1" speed="31.94" length="480.00" shape="2020.00,38.35 2500.00,38.35"/>
    </edge>
    <edge id="main_4a" from="m3" to="m4a" priority="1">
        <lane id="main_4a_0" index="0" speed="31.94" length="20.00" shape="2500.00,35.05 2520.00,35.05"/>
        <lane id="main_4a_1" index="1" speed="31.94" length="20.00" shape="2500.00,38.35 2520.00,38.35"/>
    </edge>
    <edge id="main_4b" from="m4a" to="m4" priority="1">
        <lane id="main_4b_0" index="0" speed="31.94" length="480.00" shape="2520.00,35.05 3000.00,35.05"/>
        <lane id="main_4b_1" index="1" speed="31.94" length="480.00" shape="2520.00,38.35 3000.00,38.35"/>
    </edge>
    <edge id="main_5a" from="m4" to="m5a" priority="1">
        <lane id="main_5a_0" index="0" speed="31.94" length="20.00" shape="3000.00,35.05 3020.00,35.05"/>
        <lane id="main_5a_1" index="1" speed="31.94" length="20.00" shape="3000.00,38.35 3020.00,38.35"/>
    </edge>
    <edge id="main_5b" from="m5a" to="m5" priority="1">
        <lane id="main_5b_0" index="0" speed="31.94" length="480.00" shape="3020.00,35.05 3500.00,35.05"/>
        <lane id="main_5b_1" index="1" speed="31.94" length="480.00" shape="3020.00,38.35 3500.00,38.35"/>
    </edge>
    <edge id="main_6" from="m5" to="m6" priority="1">
        <lane id="main_6_0" index="0" speed="31.94" length="50.00" shape="3500.00,35.05 3550.00,35.05"/>
        <lane id="main_6_1" index="1" speed="31.94" length="50.00" shape="3500.00,38.35 3550.00,38.35"/>
    </edge>
    <edge id="pre_1" from="p1" to="p2" priority="2">
        <lane id="pre_1_0" index="0" speed="31.94" length="498.50" shape="0.00,35.05 498.50,35.05"/>
        <lane id="pre_1_1" index="1" speed="31.94" length="498.50" shape="0.00,38.35 498.50,38.35"/>
    </edge>
    <edge id="pre_2" from="p2" to="0" priority="3">
        <lane id="pre_2_0" index="0" speed="31.94" length="511.24" shape="501.50,31.75 1012.74,31.75"/>
        <lane id="pre_2_1" index="1" speed="31.94" length="511.24" shape="501.50,35.05 1012.74,35.05"/>
        <lane id="pre_2_2" index="2" speed="31.94" length="511.24" shape="501.50,38.35 1012.74,38.35"/>
    </edge>

    <junction id="0" type="priority" x="1000.00" y="40.00" incLanes="pre_2_0 pre_2_1 pre_2_2" intLanes=":0_0_0 :0_1_0 :0_2_0" shape="1017.74,39.95 1017.74,33.45 1018.46,32.56 1017.27,29.59 1012.74,30.15 1012.74,39.95">
        <request index="0" response="000" foes="000" cont="0"/>
        <request index="1" response="000" foes="000" cont="0"/>
        <request index="2" response="000" foes="000" cont="0"/>
    </junction>
    <junction id="b1" type="priority" x="1100.00" y="0.00" incLanes="bypass_1_0" intLanes=":b1_0_0" shape="1099.99,-0.05 1099.99,-3.25 1098.80,-3.02 1099.99,-0.05">
        <request index="0" response="0" foes="0" cont="0"/>
    </junction>
    <junction id="b2" type="priority" x="3500.00" y="0.00" incLanes="bypass_2_0" intLanes=":b2_0_0" shape="3500.00,-0.05 3500.00,-3.25 3500.00,-0.05">
        <request index="0" response="0" foes="0" cont="0"/>
    </junction>
    <junction id="b3" type="unregulated" x="3550.00" y="0.00" incLanes="bypass_3_0" intLanes="" shape="3550.00,-3.25 3550.00,-0.05">
    </junction>
    <junction id="m1" type="priority" x="1500.00" y="40.00" incLanes="main_1_0 main_1_1" intLanes=":m1_0_0 :m1_1_0" shape="1500.00,39.95 1500.00,33.45 1500.00,39.95">
        <request index="0" response="00" foes="00" cont="0"/>
        <request index="1" response="00" foes="00" cont="0"/>
    </junction>
    <junction id="m2" type="priority" x="2000.00" y="40.00" incLanes="main_2b_0 main_2b_1" intLanes=":m2_0_0 :m2_1_0" shape="2000.00,39.95 2000.00,33.45 2000.00,39.95">
        <request index="0" response="00" foes="00" cont="0"/>
        <request index="1" response="00" foes="00" cont="0"/>
    </junction>
    <junction id="m2a" type="priority" x="1520.00" y="40.00" incLanes="main_2a_0 main_2a_1" intLanes=":m2a_0_0 :m2a_1_0" shape="1520.00,39.95 1520.00,33.45 1520.00,39.95">
        <request index="0" response="00" foes="00" cont="0"/>
        <request index="1" response="00" foes="00" cont="0"/>
    </junction>
    <junction id="m3" type="priority" x="2500.00" y="40.00" incLanes="main_3b_0 main_3b_1" intLanes=":m3_0_0 :m3_1_0" shape="2500.00,39.95 2500.00,33.45 2500.00,39.95">
        <request index="0" response="00" foes="00" cont="0"/>
        <request index="1" response="00" foes="00" cont="0"/>
    </junction>
    <junction id="m3a" type="priority" x="2020.00" y="40.00" incLanes="main_3a_0 main_3a_1" intLanes=":m3a_0_0 :m3a_1_0" shape="2020.00,39.95 2020.00,33.45 2020.00,39.95">
        <request index="0" response="00" foes="00" cont="0"/>
        <request index="1" response="00" foes="00" cont="0"/>
    </junction>
    <junction id="m4" type="priority" x="3000.00" y="40.00" incLanes="main_4b_0 main_4b_1" intLanes=":m4_0_0 :m4_1_0" shape="3000.00,39.95 3000.00,33.45 3000.00,39.95">
        <request index="0" response="00" foes="00" cont="0"/>
        <request index="1" response="00" foes="00" cont="0"/>
    </junction>
    <junction id="m4a" type="priority" x="2520.00" y="40.00" incLanes="main_4a_0 main_4a_1" intLanes=":m4a_0_0 :m4a_1_0" shape="2520.00,39.95 2520.00,33.45 2520.00,39.95">
        <request index="0" response="00" foes="00" cont="0"/>
        <request index="1" response="00" foes="00" cont="0"/>
    </junction>
    <junction id="m5" type="priority" x="3500.00" y="40.00" incLanes="main_5b_0 main_5b_1" intLanes=":m5_0_0 :m5_1_0" shape="3500.00,39.95 3500.00,33.45 3500.00,39.95">
        <request index="0" response="00" foes="00" cont="0"/>
        <request index="1" response="00" foes="00" cont="0"/>
    </junction>
    <junction id="m5a" type="priority" x="3020.00" y="40.00" incLanes="main_5a_0 main_5a_1" intLanes=":m5a_0_0 :m5a_1_0" shape="3020.00,39.95 3020.00,33.45 3020.00,39.95">
        <request index="0" response="00" foes="00" cont="0"/>
        <request index="1" response="00" foes="00" cont="0"/>
    </junction>
    <junction id="m6" type="unregulated" x="3550.00" y="40.00" incLanes="main_6_0 main_6_1" intLanes="" shape="3550.00,33.45 3550.00,39.95">
    </junction>
    <junction id="p1" type="unregulated" x="0.00" y="40.00" incLanes="" intLanes="" shape="-0.00,39.95 -0.00,33.45">
    </junction>
    <junction id="p2" type="priority" x="500.00" y="40.00" incLanes="pre_1_0 pre_1_1" intLanes=":p2_0_0 :p2_1_0 :p2_2_0" shape="501.50,39.95 501.50,30.15 498.50,33.45 498.50,39.95">
        <request index="0" response="000" foes="000" cont="0"/>
        <request index="1" response="000" foes="000" cont="0"/>
        <request index="2" response="000" foes="000" cont="0"/>
    </junction>

    <connection from="bypass_1" to="bypass_2" fromLane="0" toLane="0" via=":b1_0_0" dir="s" state="M"/>
    <connection from="bypass_2" to="bypass_3" fromLane="0" toLane="0" via=":b2_0_0" dir="s" state="M"/>
    <connection from="main_1" to="main_2a" fromLane="0" toLane="0" via=":m1_0_0" dir="s" state="M"/>
    <connection from="main_1" to="main_2a" fromLane="1" toLane="1" via=":m1_1_0" dir="s" state="M"/>
    <connection from="main_2a" to="main_2b" fromLane="0" toLane="0" via=":m2a_0_0" dir="s" state="M"/>
    <connection from="main_2a" to="main_2b" fromLane="1" toLane="1" via=":m2a_1_0" dir="s" state="M"/>
    <connection from="main_2b" to="main_3a" fromLane="0" toLane="0" via=":m2_0_0" dir="s" state="M"/>
    <connection from="main_2b" to="main_3a" fromLane="1" toLane="1" via=":m2_1_0" dir="s" state="M"/>
    <connection from="main_3a" to="main_3b" fromLane="0" toLane="0" via=":m3a_0_0" dir="s" state="M"/>
    <connection from="main_3a" to="main_3b" fromLane="1" toLane="1" via=":m3a_1_0" dir="s" state="M"/>
    <connection from="main_3b" to="main_4a" fromLane="0" toLane="0" via=":m3_0_0" dir="s" state="M"/>
    <connection from="main_3b" to="main_4a" fromLane="1" toLane="1" via=":m3_1_0" dir="s" state="M"/>
    <connection from="main_4a" to="main_4b" fromLane="0" toLane="0" via=":m4a_0_0" dir="s" state="M"/>
    <connection from="main_4a" to="main_4b" fromLane="1" toLane="1" via=":m4a_1_0" dir="s" state="M"/>
    <connection from="main_4b" to="main_5a" fromLane="0" toLane="0" via=":m4_0_0" dir="s" state="M"/>
    <connection from="main_4b" to="main_5a" fromLane="1" toLane="1" via=":m4_1_0" dir="s" state="M"/>
    <connection from="main_5a" to="main_5b" fromLane="0" toLane="0" via=":m5a_0_0" dir="s" state="M"/>
    <connection from="main_5a" to="main_5b" fromLane="1" toLane="1" via=":m5a_1_0" dir="s" state="M"/>
    <connection from="main_5b" to="main_6" fromLane="0" toLane="0" via=":m5_0_0" dir="s" state="M"/>
    <connection from="main_5b" to="main_6" fromLane="1" toLane="1" via=":m5_1_0" dir="s" state="M"/>
    <connection from="pre_1" to="pre_2" fromLane="0" toLane="0" via=":p2_0_0" dir="s" state="M"/>
    <connection from="pre_1" to="pre_2" fromLane="0" toLane="1" via=":p2_1_0" dir="s" state="M"/>
    <connection from="pre_1" to="pre_2" fromLane="1" toLane="2" via=":p2_2_0" dir="s" state="M"/>
    <connection from="pre_2" to="bypass_1" fromLane="0" toLane="0" via=":0_0_0" dir="s" state="M"/>
    <connection from="pre_2" to="main_1" fromLane="1" toLane="0" via=":0_1_0" dir="s" state="M"/>
    <connection from="pre_2" to="main_1" fromLane="2" toLane="1" via=":0_2_0" dir="s" state="M"/>

    <connection from=":0_0" to="bypass_1" fromLane="0" toLane="0" dir="s" state="M"/>
    <connection from=":0_1" to="main_1" fromLane="0" toLane="0" dir="s" state="M"/>
    <connection from=":0_2" to="main_1" fromLane="0" toLane="1" dir="s" state="M"/>
    <connection from=":b1_0" to="bypass_2" fromLane="0" toLane="0" dir="s" state="M"/>
    <connection from=":b2_0" to="bypass_3" fromLane="0" toLane="0" dir="s" state="M"/>
    <connection from=":m1_0" to="main_2a" fromLane="0" toLane="0" dir="s" state="M"/>
    <connection from=":m1_1" to="main_2a" fromLane="0" toLane="1" dir="s" state="M"/>
    <connection from=":m2_0" to="main_3a" fromLane="0" toLane="0" dir="s" state="M"/>
    <connection from=":m2_1" to="main_3a" fromLane="0" toLane="1" dir="s" state="M"/>
    <connection from=":m2a_0" to="main_2b" fromLane="0" toLane="0" dir="s" state="M"/>
    <connection from=":m2a_1" to="main_2b" fromLane="0" toLane="1" dir="s" state="M"/>
    <connection from=":m3_0" to="main_4a" fromLane="0" toLane="0" dir="s" state="M"/>
    <connection from=":m3_1" to="main_4a" fromLane="0" toLane="1" dir="s" state="M"/>
    <connection from=":m3a_0" to="main_3b" fromLane="0" toLane="0" dir="s" state="M"/>
    <connection from=":m3a_1" to="main_3b" fromLane="0" toLane="1" dir="s" state="M"/>
    <connection from=":m4_0" to="main_5a" fromLane="0" toLane="0" dir="s" state="M"/>
    <connection from=":m4_1" to="main_5a" fromLane="0" toLane="1" dir="s" state="M"/>
    <connection from=":m4a_0" to="main_4b" fromLane="0" toLane="0" dir="s" state="M"/>
    <connection from=":m4a_1" to="main_4b" fromLane="0" toLane="1" dir="s" state="M"/>
    <connection from=":m5_0" to="main_6" fromLane="0" toLane="0" dir="s" state="M"/>
    <connection from=":m5_1" to="main_6" fromLane="0" toLane="1" dir="s" state="M"/>
    <connection from=":m5a_0" to="main_5b" fromLane="0" toLane="0" dir="s" state="M"/>
    <connection from=":m5a_1" to="main_5b" fromLane="0" toLane="1" dir="s" state="M"/>
    <connection from=":p2_0" to="pre_2" fromLane="0" toLane="0" dir="s" state="M"/>
    <connection from=":p2_1" to="pre_2" fromLane="0" toLane="1" dir="s" state="M"/>
    <connection from=":p2_2" to="pre_2" fromLane="0" toLane="2" dir="s" state="M"/>

</net>
